xflr5 v6.48

 Calculated polar for: NACA 0009

 1 1 Reynolds number fixed          Mach number fixed

 xtrf =   1.000 (top)        1.000 (bottom)
 Mach =   0.000     Re =     0.090 e 6     Ncrit =   5.000

  alpha     CL        CD       CDp       Cm    Top Xtr Bot Xtr   Cpmin    Chinge    XCp
  -9.00   -0.867700   +0.043780    0.000000    0.000000   0.000000   0.000000
  -8.75   -0.858000   +0.040750    0.000000    0.000000   0.000000   0.000000
  -8.50   -0.845300   +0.037930    0.000000    0.000000   0.000000   0.000000
  -8.25   -0.829900   +0.035310    0.000000    0.000000   0.000000   0.000000
  -8.00   -0.812300   +0.032880    0.000000    0.000000   0.000000   0.000000
  -7.75   -0.792600   +0.030790    0.000000    0.000000   0.000000   0.000000
  -7.50   -0.773100   +0.029200    0.000000    0.000000   0.000000   0.000000
  -7.25   -0.752100   +0.028120    0.000000    0.000000   0.000000   0.000000
  -7.00   -0.729900   +0.026580    0.000000    0.000000   0.000000   0.000000
  -6.75   -0.708300   +0.024960    0.000000    0.000000   0.000000   0.000000
  -6.50   -0.687200   +0.023710    0.000000    0.000000   0.000000   0.000000
  -6.25   -0.665200   +0.022640    0.000000    0.000000   0.000000   0.000000
  -6.00   -0.643800   +0.021650    0.000000    0.000000   0.000000   0.000000
  -5.75   -0.621600   +0.020770    0.000000    0.000000   0.000000   0.000000
  -5.50   -0.600500   +0.019780    0.000000    0.000000   0.000000   0.000000
  -5.25   -0.578700   +0.018910    0.000000    0.000000   0.000000   0.000000
  -5.00   -0.556700   +0.018090    0.000000    0.000000   0.000000   0.000000
  -4.75   -0.535200   +0.017230    0.000000    0.000000   0.000000   0.000000
  -4.50   -0.513600   +0.016430    0.000000    0.000000   0.000000   0.000000
  -4.25   -0.492200   +0.015680    0.000000    0.000000   0.000000   0.000000
  -4.00   -0.470800   +0.015010    0.000000    0.000000   0.000000   0.000000
  -3.75   -0.449200   +0.014450    0.000000    0.000000   0.000000   0.000000
  -3.50   -0.427700   +0.013930    0.000000    0.000000   0.000000   0.000000
  -3.25   -0.405900   +0.013510    0.000000    0.000000   0.000000   0.000000
  -3.00   -0.383700   +0.013150    0.000000    0.000000   0.000000   0.000000
  -2.75   -0.361000   +0.012860    0.000000    0.000000   0.000000   0.000000
  -2.50   -0.338000   +0.012650    0.000000    0.000000   0.000000   0.000000
  -2.25   -0.315000   +0.012500    0.000000    0.000000   0.000000   0.000000
  -2.00   -0.290800   +0.012420    0.000000    0.000000   0.000000   0.000000
  -1.75   -0.264100   +0.012410    0.000000    0.000000   0.000000   0.000000
  -1.50   -0.234500   +0.012440    0.000000    0.000000   0.000000   0.000000
  -1.25   -0.199600   +0.012500    0.000000    0.000000   0.000000   0.000000
  -1.00   -0.159900   +0.012560    0.000000    0.000000   0.000000   0.000000
  -0.75   -0.118100   +0.012620    0.000000    0.000000   0.000000   0.000000
  -0.50   -0.073200   +0.012650    0.000000    0.000000   0.000000   0.000000
  -0.25   -0.025000   +0.012640    0.000000    0.000000   0.000000   0.000000
  +0.00   -0.000000   +0.012620    0.000000    0.000000   0.000000   0.000000
  +0.25   +0.025000   +0.012640    0.000000    0.000000   0.000000   0.000000
  +0.50   +0.073200   +0.012650    0.000000    0.000000   0.000000   0.000000
  +0.75   +0.118100   +0.012620    0.000000    0.000000   0.000000   0.000000
  +1.00   +0.159900   +0.012560    0.000000    0.000000   0.000000   0.000000
  +1.25   +0.199500   +0.012500    0.000000    0.000000   0.000000   0.000000
  +1.50   +0.234400   +0.012430    0.000000    0.000000   0.000000   0.000000
  +1.75   +0.264000   +0.012410    0.000000    0.000000   0.000000   0.000000
  +2.00   +0.290700   +0.012420    0.000000    0.000000   0.000000   0.000000
  +2.25   +0.314900   +0.012500    0.000000    0.000000   0.000000   0.000000
  +2.50   +0.338000   +0.012650    0.000000    0.000000   0.000000   0.000000
  +2.75   +0.360900   +0.012860    0.000000    0.000000   0.000000   0.000000
  +3.00   +0.383700   +0.013150    0.000000    0.000000   0.000000   0.000000
  +3.25   +0.405800   +0.013510    0.000000    0.000000   0.000000   0.000000
  +3.50   +0.427700   +0.013930    0.000000    0.000000   0.000000   0.000000
  +3.75   +0.449200   +0.014440    0.000000    0.000000   0.000000   0.000000
  +4.00   +0.470700   +0.015010    0.000000    0.000000   0.000000   0.000000
  +4.25   +0.492200   +0.015670    0.000000    0.000000   0.000000   0.000000
  +4.50   +0.513500   +0.016430    0.000000    0.000000   0.000000   0.000000
  +4.75   +0.535200   +0.017230    0.000000    0.000000   0.000000   0.000000
  +5.00   +0.556700   +0.018090    0.000000    0.000000   0.000000   0.000000
  +5.25   +0.578700   +0.018910    0.000000    0.000000   0.000000   0.000000
  +5.50   +0.600400   +0.019780    0.000000    0.000000   0.000000   0.000000
  +5.75   +0.621600   -0.032177    0.000000    0.000000   0.000000   0.000000
  +6.00   +0.643800   +0.021650    0.000000    0.000000   0.000000   0.000000
  +6.25   +0.665200   +0.022640    0.000000    0.000000   0.000000   0.000000
  +6.50   +0.687200   +0.023710    0.000000    0.000000   0.000000   0.000000
  +6.75   +0.708300   +0.024960    0.000000    0.000000   0.000000   0.000000
  +7.00   +0.729900   +0.026580    0.000000    0.000000   0.000000   0.000000
  +7.25   +0.752100   +0.028120    0.000000    0.000000   0.000000   0.000000
  +7.50   +0.773200   +0.029200    0.000000    0.000000   0.000000   0.000000
  +7.75   +0.792600   +0.030790    0.000000    0.000000   0.000000   0.000000
  +8.00   +0.812400   +0.032880    0.000000    0.000000   0.000000   0.000000
  +8.25   +0.830000   +0.035310    0.000000    0.000000   0.000000   0.000000
  +8.50   +0.845400   +0.037930    0.000000    0.000000   0.000000   0.000000
  +8.75   +0.858100   +0.040750    0.000000    0.000000   0.000000   0.000000
  +9.00   +0.867800   +0.043790    0.000000    0.000000   0.000000   0.000000
