xflr5 v6.48

 Calculated polar for: NACA 2412

 1 1 Reynolds number fixed          Mach number fixed         

 xtrf =   1.000 (top)        1.000 (bottom)
 Mach =   0.000     Re =     0.060 e 6     Ncrit =   5.000

  alpha     CL        CD       CDp       Cm    Top Xtr Bot Xtr   Cpmin    Chinge    XCp    
 ------- -------- --------- --------- -------- ------- ------- -------- --------- ---------
  -9.000  -0.6925   0.05022   0.04218  -0.0514  1.0000  0.0579  -3.9031   0.0000   0.1665
  -8.750  -0.6983   0.04661   0.03813  -0.0494  1.0000  0.0596  -3.9337   0.0000   0.1703
  -8.500  -0.6853   0.04558   0.03722  -0.0480  1.0000  0.0621  -3.7815   0.0000   0.1712
  -8.250  -0.6754   0.04407   0.03561  -0.0464  1.0000  0.0649  -3.6763   0.0000   0.1728
  -8.000  -0.6681   0.04170   0.03294  -0.0445  1.0000  0.0676  -3.6200   0.0000   0.1750
  -7.750  -0.6598   0.03895   0.02976  -0.0426  1.0000  0.0697  -3.5815   0.0000   0.1772
  -7.500  -0.6485   0.03641   0.02673  -0.0408  1.0000  0.0718  -3.5317   0.0000   0.1791
  -7.250  -0.6338   0.03445   0.02460  -0.0392  1.0000  0.0740  -3.4348   0.0000   0.1802
  -7.000  -0.6174   0.03309   0.02320  -0.0378  1.0000  0.0767  -3.3106   0.0000   0.1811
  -6.750  -0.6005   0.03177   0.02166  -0.0364  1.0000  0.0804  -3.1901   0.0000   0.1819
  -6.500  -0.5830   0.03056   0.02007  -0.0349  1.0000  0.0865  -3.0783   0.0000   0.1826
  -6.250  -0.5654   0.02955   0.01917  -0.0337  1.0000  0.0916  -2.9394   0.0000   0.1831
  -6.000  -0.5466   0.02854   0.01805  -0.0325  1.0000  0.0973  -2.8365   0.0000   0.1835
  -5.750  -0.5264   0.02740   0.01664  -0.0312  1.0000  0.1030  -2.7499   0.0000   0.1838
  -5.500  -0.5074   0.02647   0.01581  -0.0300  1.0000  0.1088  -2.6405   0.0000   0.1839
  -5.250  -0.4873   0.02579   0.01497  -0.0289  1.0000  0.1188  -2.5343   0.0000   0.1839
  -5.000  -0.4678   0.02509   0.01438  -0.0279  1.0000  0.1284  -2.4207   0.0000   0.1837
  -4.750  -0.4470   0.02438   0.01358  -0.0269  1.0000  0.1391  -2.3151   0.0000   0.1833
  -4.500  -0.4265   0.02379   0.01296  -0.0260  1.0000  0.1516  -2.2018   0.0000   0.1827
  -4.250  -0.4058   0.02328   0.01251  -0.0252  1.0000  0.1675  -2.0889   0.0000   0.1817
  -4.000  -0.3844   0.02279   0.01207  -0.0244  1.0000  0.1851  -1.9771   0.0000   0.1802
  -3.750  -0.3465   0.02230   0.01164  -0.0270  0.9936  0.2138  -1.8257   0.0000   0.1659
  -3.500  -0.3085   0.02181   0.01128  -0.0295  0.9857  0.2476  -1.6807   0.0000   0.1479
  -3.250  -0.2691   0.02141   0.01096  -0.0323  0.9784  0.2900  -1.5531   0.0000   0.1233
  -3.000  -0.2331   0.02095   0.01071  -0.0343  0.9692  0.3372  -1.4325   0.0000   0.0957
  -2.750  -0.1953   0.02052   0.01044  -0.0366  0.9612  0.3947  -1.3093   0.0000   0.0548
  -2.500  -0.1624   0.02006   0.01032  -0.0378  0.9512  0.4611  -1.1974   0.0000   0.0092
  -2.250  -0.1255   0.01964   0.01027  -0.0394  0.9434  0.5469  -1.0808   0.0000  -0.0731
  -2.000  -0.0975   0.01931   0.01027  -0.0389  0.9319  0.6320  -0.9956   0.0000  -0.1597
  -1.750  -0.0610   0.01906   0.01034  -0.0395  0.9247  0.7257  -0.8984   0.0000  -0.4118
  -1.500  -0.0302   0.01897   0.01042  -0.0389  0.9136  0.8080  -0.8115   0.0000  -1.0620
  -1.250   0.0199   0.01897   0.01040  -0.0421  0.9066  0.8862  -0.7074   0.0000   2.3932
  -1.000   0.0821   0.01895   0.01027  -0.0482  0.9016  0.9447  -0.5979   0.0000   0.8421
  -0.750   0.1422   0.01891   0.01010  -0.0546  0.8921  0.9854  -0.5045   0.0000   0.6357
  -0.500   0.1920   0.01875   0.00981  -0.0592  0.8819  1.0000  -0.5173   0.0000   0.5585
  -0.250   0.2199   0.01868   0.00962  -0.0594  0.8675  1.0000  -0.5389   0.0000   0.5198
   0.000   0.2521   0.01855   0.00938  -0.0602  0.8546  1.0000  -0.5639   0.0000   0.4879
   0.250   0.2766   0.01855   0.00928  -0.0596  0.8385  1.0000  -0.5854   0.0000   0.4642
   0.500   0.3094   0.01842   0.00905  -0.0603  0.8265  1.0000  -0.6132   0.0000   0.4431
   0.750   0.3317   0.01849   0.00904  -0.0592  0.8095  1.0000  -0.6354   0.0000   0.4264
   1.000   0.3651   0.01835   0.00881  -0.0598  0.7978  1.0000  -0.6665   0.0000   0.4114
   1.250   0.3860   0.01849   0.00889  -0.0584  0.7800  1.0000  -0.6901   0.0000   0.3988
   1.500   0.4155   0.01845   0.00877  -0.0583  0.7668  1.0000  -0.7222   0.0000   0.3875
   1.750   0.4391   0.01856   0.00883  -0.0573  0.7499  1.0000  -0.7519   0.0000   0.3775
   2.000   0.4663   0.01862   0.00887  -0.0568  0.7358  1.0000  -0.7868   0.0000   0.3686
   2.250   0.4913   0.01873   0.00893  -0.0560  0.7196  1.0000  -0.8233   0.0000   0.3605
   2.500   0.5170   0.01886   0.00901  -0.0553  0.7046  1.0000  -0.8645   0.0000   0.3532
   2.750   0.5428   0.01898   0.00908  -0.0546  0.6891  1.0000  -0.9111   0.0000   0.3466
   3.000   0.5674   0.01917   0.00925  -0.0537  0.6735  1.0000  -0.9622   0.0000   0.3405
   3.250   0.5937   0.01931   0.00934  -0.0530  0.6584  1.0000  -1.0217   0.0000   0.3349
   3.500   0.6175   0.01957   0.00959  -0.0521  0.6422  1.0000  -1.0828   0.0000   0.3298
   3.750   0.6442   0.01972   0.00969  -0.0514  0.6274  1.0000  -1.1556   0.0000   0.3250
   4.000   0.6671   0.02003   0.01010  -0.0504  0.6105  1.0000  -1.2262   0.0000   0.3206
   4.250   0.6942   0.02019   0.01019  -0.0498  0.5959  1.0000  -1.3129   0.0000   0.3164
   4.500   0.7159   0.02054   0.01060  -0.0486  0.5778  1.0000  -1.3905   0.0000   0.3124
   4.750   0.7413   0.02078   0.01080  -0.0478  0.5620  1.0000  -1.4830   0.0000   0.3087
   5.000   0.7640   0.02109   0.01114  -0.0466  0.5436  1.0000  -1.5782   0.0000   0.3051
   5.250   0.7870   0.02141   0.01148  -0.0456  0.5256  1.0000  -1.6759   0.0000   0.3017
   5.500   0.8116   0.02167   0.01165  -0.0445  0.5077  1.0000  -1.7797   0.0000   0.2984
   5.750   0.8321   0.02205   0.01213  -0.0431  0.4866  1.0000  -1.8747   0.0000   0.2951
   6.000   0.8535   0.02241   0.01259  -0.0418  0.4656  1.0000  -1.9881   0.0000   0.2920
   6.250   0.8748   0.02276   0.01292  -0.0404  0.4439  1.0000  -2.1062   0.0000   0.2889
   6.500   0.8952   0.02314   0.01326  -0.0389  0.4208  1.0000  -2.2239   0.0000   0.2859
   6.750   0.9141   0.02358   0.01369  -0.0373  0.3956  1.0000  -2.3387   0.0000   0.2829
   7.000   0.9320   0.02407   0.01418  -0.0356  0.3688  1.0000  -2.4523   0.0000   0.2800
   7.250   0.9489   0.02463   0.01469  -0.0338  0.3408  1.0000  -2.5645   0.0000   0.2771
   7.500   0.9648   0.02529   0.01532  -0.0319  0.3111  1.0000  -2.6742   0.0000   0.2743
   7.750   0.9796   0.02606   0.01603  -0.0300  0.2808  1.0000  -2.7813   0.0000   0.2715
   8.000   0.9928   0.02697   0.01691  -0.0279  0.2507  1.0000  -2.8867   0.0000   0.2688
   8.250   1.0045   0.02802   0.01783  -0.0258  0.2229  1.0000  -3.0050   0.0000   0.2660
   8.500   1.0150   0.02922   0.01888  -0.0237  0.1981  1.0000  -3.1182   0.0000   0.2633
   8.750   1.0250   0.03049   0.02007  -0.0216  0.1770  1.0000  -3.2286   0.0000   0.2607
   9.000   1.0344   0.03183   0.02135  -0.0195  0.1585  1.0000  -3.3362   0.0000   0.2581


