xflr5 v6.48

 Calculated polar for: NACA 2412

 1 1 Reynolds number fixed          Mach number fixed         

 xtrf =   1.000 (top)        1.000 (bottom)
 Mach =   0.000     Re =     0.070 e 6     Ncrit =   5.000

  alpha     CL        CD       CDp       Cm    Top Xtr Bot Xtr   Cpmin    Chinge    XCp    
 ------- -------- --------- --------- -------- ------- ------- -------- --------- ---------
  -9.000  -0.7069   0.04643   0.03878  -0.0509  1.0000  0.0520  -4.0497   0.0000   0.1686
  -8.750  -0.7055   0.04357   0.03563  -0.0489  1.0000  0.0532  -4.0262   0.0000   0.1715
  -8.500  -0.7007   0.04100   0.03272  -0.0470  1.0000  0.0551  -3.9839   0.0000   0.1741
  -8.250  -0.6943   0.03859   0.02982  -0.0449  1.0000  0.0581  -3.9392   0.0000   0.1766
  -8.000  -0.6832   0.03674   0.02779  -0.0432  1.0000  0.0607  -3.8411   0.0000   0.1783
  -7.750  -0.6687   0.03559   0.02663  -0.0417  1.0000  0.0633  -3.7052   0.0000   0.1794
  -7.500  -0.6544   0.03399   0.02482  -0.0400  1.0000  0.0657  -3.6009   0.0000   0.1807
  -7.250  -0.6391   0.03223   0.02279  -0.0384  1.0000  0.0683  -3.5051   0.0000   0.1820
  -7.000  -0.6224   0.03058   0.02079  -0.0368  1.0000  0.0712  -3.4063   0.0000   0.1831
  -6.750  -0.6049   0.02914   0.01915  -0.0354  1.0000  0.0740  -3.2853   0.0000   0.1838
  -6.500  -0.5871   0.02819   0.01822  -0.0341  1.0000  0.0776  -3.1459   0.0000   0.1845
  -6.250  -0.5686   0.02739   0.01728  -0.0328  1.0000  0.0836  -3.0096   0.0000   0.1850
  -6.000  -0.5497   0.02643   0.01622  -0.0316  1.0000  0.0894  -2.8988   0.0000   0.1854
  -5.750  -0.5306   0.02564   0.01544  -0.0304  1.0000  0.0948  -2.7879   0.0000   0.1856
  -5.500  -0.5103   0.02480   0.01444  -0.0293  1.0000  0.1010  -2.6868   0.0000   0.1858
  -5.250  -0.4905   0.02402   0.01370  -0.0282  1.0000  0.1077  -2.5758   0.0000   0.1858
  -5.000  -0.4701   0.02350   0.01310  -0.0272  1.0000  0.1181  -2.4618   0.0000   0.1855
  -4.750  -0.4500   0.02291   0.01259  -0.0263  1.0000  0.1282  -2.3458   0.0000   0.1850
  -4.500  -0.4237   0.02231   0.01190  -0.0264  0.9981  0.1406  -2.2203   0.0000   0.1812
  -4.250  -0.3858   0.02176   0.01141  -0.0289  0.9920  0.1604  -2.0631   0.0000   0.1684
  -4.000  -0.3492   0.02123   0.01096  -0.0312  0.9848  0.1834  -1.9109   0.0000   0.1541
  -3.750  -0.3110   0.02076   0.01058  -0.0336  0.9781  0.2124  -1.7569   0.0000   0.1350
  -3.500  -0.2755   0.02032   0.01024  -0.0355  0.9697  0.2453  -1.6266   0.0000   0.1140
  -3.250  -0.2358   0.01990   0.00996  -0.0382  0.9631  0.2871  -1.4969   0.0000   0.0804
  -3.000  -0.2036   0.01946   0.00965  -0.0394  0.9532  0.3305  -1.3821   0.0000   0.0486
  -2.750  -0.1646   0.01903   0.00942  -0.0419  0.9462  0.3862  -1.2570   0.0000  -0.0130
  -2.500  -0.1337   0.01861   0.00927  -0.0426  0.9359  0.4479  -1.1490   0.0000  -0.0778
  -2.250  -0.0984   0.01817   0.00917  -0.0439  0.9277  0.5268  -1.0418   0.0000  -0.2069
  -2.000  -0.0660   0.01780   0.00913  -0.0443  0.9193  0.6106  -0.9502   0.0000  -0.4359
  -1.750  -0.0371   0.01752   0.00913  -0.0437  0.9088  0.6916  -0.8654   0.0000  -0.9487
  -1.500  -0.0009   0.01730   0.00912  -0.0441  0.9020  0.7732  -0.7707   0.0000  -51.6012
  -1.250   0.0316   0.01725   0.00913  -0.0439  0.8906  0.8423  -0.6943   0.0000   1.6571
  -1.000   0.0792   0.01720   0.00906  -0.0468  0.8826  0.9024  -0.6025   0.0000   0.8467
  -0.750   0.1367   0.01710   0.00887  -0.0520  0.8768  0.9462  -0.5101   0.0000   0.6325
  -0.500   0.1877   0.01707   0.00874  -0.0566  0.8647  0.9800  -0.5176   0.0000   0.5519
  -0.250   0.2460   0.01686   0.00843  -0.0626  0.8553  1.0000  -0.5557   0.0000   0.5041
   0.000   0.2701   0.01679   0.00826  -0.0620  0.8395  1.0000  -0.5765   0.0000   0.4786
   0.250   0.3006   0.01665   0.00800  -0.0623  0.8267  1.0000  -0.6021   0.0000   0.4560
   0.500   0.3230   0.01666   0.00793  -0.0613  0.8096  1.0000  -0.6238   0.0000   0.4380
   0.750   0.3531   0.01655   0.00770  -0.0614  0.7967  1.0000  -0.6515   0.0000   0.4217
   1.000   0.3751   0.01662   0.00771  -0.0602  0.7792  1.0000  -0.6755   0.0000   0.4081
   1.250   0.4021   0.01661   0.00760  -0.0597  0.7649  1.0000  -0.7041   0.0000   0.3959
   1.500   0.4264   0.01666   0.00759  -0.0588  0.7483  1.0000  -0.7326   0.0000   0.3851
   1.750   0.4517   0.01673   0.00759  -0.0581  0.7331  1.0000  -0.7642   0.0000   0.3755
   2.000   0.4773   0.01680   0.00761  -0.0573  0.7174  1.0000  -0.7987   0.0000   0.3668
   2.250   0.5015   0.01694   0.00770  -0.0564  0.7013  1.0000  -0.8352   0.0000   0.3590
   2.500   0.5279   0.01702   0.00770  -0.0558  0.6865  1.0000  -0.8782   0.0000   0.3519
   2.750   0.5514   0.01722   0.00787  -0.0548  0.6698  1.0000  -0.9233   0.0000   0.3455
   3.000   0.5782   0.01733   0.00790  -0.0542  0.6556  1.0000  -0.9785   0.0000   0.3396
   3.250   0.6010   0.01758   0.00815  -0.0532  0.6385  1.0000  -1.0352   0.0000   0.3341
   3.500   0.6277   0.01773   0.00820  -0.0526  0.6244  1.0000  -1.1030   0.0000   0.3291
   3.750   0.6503   0.01800   0.00851  -0.0515  0.6070  1.0000  -1.1694   0.0000   0.3244
   4.000   0.6759   0.01821   0.00871  -0.0508  0.5922  1.0000  -1.2476   0.0000   0.3200
   4.250   0.6990   0.01849   0.00901  -0.0498  0.5749  1.0000  -1.3272   0.0000   0.3159
   4.500   0.7235   0.01875   0.00924  -0.0489  0.5591  1.0000  -1.4108   0.0000   0.3120
   4.750   0.7472   0.01902   0.00949  -0.0479  0.5417  1.0000  -1.5037   0.0000   0.3083
   5.000   0.7703   0.01933   0.00982  -0.0469  0.5238  1.0000  -1.6001   0.0000   0.3049
   5.250   0.7943   0.01960   0.01001  -0.0459  0.5064  1.0000  -1.7014   0.0000   0.3015
   5.500   0.8161   0.01993   0.01040  -0.0447  0.4862  1.0000  -1.7985   0.0000   0.2982
   5.750   0.8382   0.02027   0.01074  -0.0435  0.4659  1.0000  -1.8982   0.0000   0.2951
   6.000   0.8600   0.02061   0.01113  -0.0422  0.4450  1.0000  -2.0182   0.0000   0.2921
   6.250   0.8811   0.02098   0.01144  -0.0409  0.4226  1.0000  -2.1367   0.0000   0.2891
   6.500   0.9009   0.02139   0.01188  -0.0394  0.3977  1.0000  -2.2529   0.0000   0.2862
   6.750   0.9202   0.02184   0.01231  -0.0379  0.3717  1.0000  -2.3695   0.0000   0.2833
   7.000   0.9386   0.02234   0.01277  -0.0363  0.3442  1.0000  -2.4855   0.0000   0.2805
   7.250   0.9560   0.02294   0.01328  -0.0346  0.3157  1.0000  -2.5997   0.0000   0.2777
   7.500   0.9726   0.02362   0.01391  -0.0329  0.2851  1.0000  -2.7124   0.0000   0.2751
   7.750   0.9880   0.02442   0.01462  -0.0311  0.2543  1.0000  -2.8223   0.0000   0.2724
   8.000   1.0020   0.02535   0.01549  -0.0293  0.2250  1.0000  -2.9391   0.0000   0.2698
   8.250   1.0144   0.02642   0.01641  -0.0273  0.1985  1.0000  -3.0609   0.0000   0.2671
   8.500   1.0266   0.02755   0.01744  -0.0253  0.1755  1.0000  -3.1807   0.0000   0.2646
   8.750   1.0376   0.02875   0.01855  -0.0233  0.1555  1.0000  -3.2969   0.0000   0.2620
   9.000   1.0479   0.03000   0.01976  -0.0212  0.1389  1.0000  -3.4107   0.0000   0.2595


