xflr5 v6.48

 Calculated polar for: NACA 2412

 1 1 Reynolds number fixed          Mach number fixed         

 xtrf =   1.000 (top)        1.000 (bottom)
 Mach =   0.000     Re =     0.050 e 6     Ncrit =   5.000

  alpha     CL        CD       CDp       Cm    Top Xtr Bot Xtr   Cpmin    Chinge    XCp    
 ------- -------- --------- --------- -------- ------- ------- -------- --------- ---------
  -9.000  -0.6420   0.06011   0.05215  -0.0515  1.0000  0.0701  -3.4176   0.0000   0.1607
  -8.750  -0.6588   0.05538   0.04707  -0.0503  1.0000  0.0711  -3.5137   0.0000   0.1648
  -8.500  -0.6692   0.05103   0.04224  -0.0486  1.0000  0.0722  -3.5851   0.0000   0.1688
  -8.250  -0.6654   0.04798   0.03901  -0.0469  1.0000  0.0736  -3.5505   0.0000   0.1710
  -8.000  -0.6566   0.04562   0.03652  -0.0453  1.0000  0.0751  -3.4787   0.0000   0.1727
  -7.750  -0.6471   0.04332   0.03402  -0.0437  1.0000  0.0770  -3.4097   0.0000   0.1745
  -7.500  -0.6366   0.04096   0.03140  -0.0420  1.0000  0.0794  -3.3444   0.0000   0.1761
  -7.250  -0.6246   0.03861   0.02869  -0.0404  1.0000  0.0822  -3.2792   0.0000   0.1776
  -7.000  -0.6111   0.03636   0.02587  -0.0387  1.0000  0.0862  -3.2110   0.0000   0.1790
  -6.750  -0.5953   0.03514   0.02470  -0.0374  1.0000  0.0910  -3.0807   0.0000   0.1797
  -6.500  -0.5788   0.03397   0.02340  -0.0360  1.0000  0.0970  -2.9608   0.0000   0.1805
  -6.250  -0.5608   0.03229   0.02127  -0.0346  1.0000  0.1025  -2.8710   0.0000   0.1811
  -6.000  -0.5422   0.03097   0.02004  -0.0334  1.0000  0.1070  -2.7734   0.0000   0.1814
  -5.750  -0.5231   0.02985   0.01881  -0.0322  1.0000  0.1132  -2.6793   0.0000   0.1816
  -5.500  -0.5038   0.02885   0.01767  -0.0310  1.0000  0.1223  -2.5819   0.0000   0.1817
  -5.250  -0.4846   0.02807   0.01688  -0.0299  1.0000  0.1324  -2.4752   0.0000   0.1817
  -5.000  -0.4641   0.02712   0.01587  -0.0288  1.0000  0.1418  -2.3752   0.0000   0.1815
  -4.750  -0.4435   0.02637   0.01504  -0.0277  1.0000  0.1539  -2.2704   0.0000   0.1810
  -4.500  -0.4235   0.02572   0.01439  -0.0268  1.0000  0.1688  -2.1600   0.0000   0.1804
  -4.250  -0.4026   0.02507   0.01377  -0.0259  1.0000  0.1852  -2.0526   0.0000   0.1794
  -4.000  -0.3813   0.02450   0.01323  -0.0251  1.0000  0.2048  -1.9442   0.0000   0.1779
  -3.750  -0.3596   0.02401   0.01281  -0.0245  1.0000  0.2289  -1.8335   0.0000   0.1757
  -3.500  -0.3383   0.02357   0.01244  -0.0239  1.0000  0.2564  -1.7249   0.0000   0.1734
  -3.250  -0.3162   0.02320   0.01213  -0.0234  0.9997  0.2896  -1.6313   0.0000   0.1700
  -3.000  -0.2767   0.02273   0.01187  -0.0263  0.9917  0.3397  -1.5054   0.0000   0.1486
  -2.750  -0.2388   0.02225   0.01161  -0.0288  0.9828  0.3986  -1.3829   0.0000   0.1229
  -2.500  -0.2033   0.02179   0.01152  -0.0306  0.9733  0.4711  -1.2660   0.0000   0.0926
  -2.250  -0.1669   0.02141   0.01154  -0.0321  0.9645  0.5622  -1.1489   0.0000   0.0501
  -2.000  -0.1375   0.02110   0.01160  -0.0318  0.9533  0.6562  -1.0530   0.0000   0.0108
  -1.750  -0.1008   0.02095   0.01177  -0.0322  0.9450  0.7599  -0.9544   0.0000  -0.0789
  -1.500  -0.0624   0.02096   0.01190  -0.0330  0.9345  0.8562  -0.8557   0.0000  -0.2910
  -1.250   0.0032   0.02109   0.01187  -0.0396  0.9284  0.9434  -0.7267   0.0000  12.8628
  -1.000   0.0833   0.02110   0.01167  -0.0501  0.9245  1.0000  -0.5961   0.0000   0.8563
  -0.750   0.1130   0.02108   0.01147  -0.0511  0.9091  1.0000  -0.5366   0.0000   0.7052
  -0.500   0.1531   0.02103   0.01126  -0.0539  0.8981  1.0000  -0.4932   0.0000   0.6029
  -0.250   0.1829   0.02102   0.01112  -0.0546  0.8829  1.0000  -0.5153   0.0000   0.5484
   0.000   0.2148   0.02102   0.01100  -0.0555  0.8696  1.0000  -0.5390   0.0000   0.5078
   0.500   0.2752   0.02103   0.01082  -0.0564  0.8412  1.0000  -0.5884   0.0000   0.4535
   0.750   0.3088   0.02097   0.01068  -0.0573  0.8285  1.0000  -0.6175   0.0000   0.4335
   1.000   0.3334   0.02108   0.01072  -0.0566  0.8127  1.0000  -0.6416   0.0000   0.4176
   1.250   0.3669   0.02100   0.01057  -0.0573  0.8002  1.0000  -0.6734   0.0000   0.4035
   1.500   0.3899   0.02117   0.01069  -0.0563  0.7836  1.0000  -0.6998   0.0000   0.3915
   1.750   0.4233   0.02109   0.01055  -0.0568  0.7716  1.0000  -0.7359   0.0000   0.3810
   2.000   0.4452   0.02131   0.01075  -0.0556  0.7543  1.0000  -0.7653   0.0000   0.3715
   2.250   0.4781   0.02124   0.01067  -0.0559  0.7424  1.0000  -0.8075   0.0000   0.3633
   2.500   0.4991   0.02153   0.01094  -0.0546  0.7248  1.0000  -0.8427   0.0000   0.3556
   2.750   0.5314   0.02148   0.01082  -0.0546  0.7126  1.0000  -0.8944   0.0000   0.3488
   3.000   0.5519   0.02182   0.01119  -0.0533  0.6949  1.0000  -0.9385   0.0000   0.3424
   3.250   0.5817   0.02186   0.01117  -0.0530  0.6816  1.0000  -1.0001   0.0000   0.3367
   3.500   0.6037   0.02219   0.01154  -0.0518  0.6645  1.0000  -1.0562   0.0000   0.3313
   3.750   0.6314   0.02232   0.01164  -0.0513  0.6503  1.0000  -1.1290   0.0000   0.3264
   4.000   0.6546   0.02263   0.01205  -0.0502  0.6334  1.0000  -1.1965   0.0000   0.3217
   4.250   0.6803   0.02286   0.01228  -0.0494  0.6182  1.0000  -1.2790   0.0000   0.3174
   4.500   0.7050   0.02311   0.01255  -0.0485  0.6014  1.0000  -1.3615   0.0000   0.3133
   4.750   0.7284   0.02344   0.01291  -0.0474  0.5847  1.0000  -1.4441   0.0000   0.3094
   5.000   0.7549   0.02362   0.01307  -0.0466  0.5682  1.0000  -1.5470   0.0000   0.3058
   5.250   0.7759   0.02404   0.01357  -0.0453  0.5492  1.0000  -1.6387   0.0000   0.3022
   5.500   0.8006   0.02429   0.01380  -0.0442  0.5316  1.0000  -1.7413   0.0000   0.2988
   5.750   0.8231   0.02460   0.01414  -0.0429  0.5118  1.0000  -1.8407   0.0000   0.2955
   6.000   0.8437   0.02501   0.01471  -0.0415  0.4908  1.0000  -1.9441   0.0000   0.2922
   6.250   0.8652   0.02535   0.01506  -0.0400  0.4696  1.0000  -2.0615   0.0000   0.2890
   6.500   0.8864   0.02568   0.01535  -0.0385  0.4473  1.0000  -2.1805   0.0000   0.2859
   6.750   0.9057   0.02607   0.01574  -0.0368  0.4232  1.0000  -2.2958   0.0000   0.2828
   7.000   0.9229   0.02656   0.01626  -0.0349  0.3972  1.0000  -2.4060   0.0000   0.2797
   7.250   0.9394   0.02708   0.01678  -0.0329  0.3701  1.0000  -2.5159   0.0000   0.2766
   7.500   0.9548   0.02768   0.01732  -0.0308  0.3421  1.0000  -2.6239   0.0000   0.2736
   7.750   0.9686   0.02841   0.01800  -0.0287  0.3125  1.0000  -2.7273   0.0000   0.2706
   8.000   0.9814   0.02928   0.01891  -0.0266  0.2828  1.0000  -2.8272   0.0000   0.2677
   8.250   0.9925   0.03029   0.01984  -0.0243  0.2537  1.0000  -2.9338   0.0000   0.2648
   8.500   1.0025   0.03146   0.02090  -0.0221  0.2272  1.0000  -3.0432   0.0000   0.2620
   8.750   1.0111   0.03278   0.02210  -0.0198  0.2035  1.0000  -3.1473   0.0000   0.2592
   9.000   1.0193   0.03420   0.02345  -0.0176  0.1831  1.0000  -3.2481   0.0000   0.2566


