xflr5 v6.48

 Calculated polar for: NACA 2412

 1 1 Reynolds number fixed          Mach number fixed

 xtrf =   1.000 (top)        1.000 (bottom)
 Mach =   0.000     Re =     0.070 e 6     Ncrit =   5.000

  alpha     CL        CD       CDp       Cm    Top Xtr Bot Xtr   Cpmin    Chinge    XCp
  -9.00   -0.706900   +0.046430    0.000000    0.000000   0.000000   0.000000
  -8.75   -0.705500   +0.043570    0.000000    0.000000   0.000000   0.000000
  -8.50   -0.700700   +0.041000    0.000000    0.000000   0.000000   0.000000
  -8.25   -0.694300   +0.038590    0.000000    0.000000   0.000000   0.000000
  -8.00   -0.683200   +0.036740    0.000000    0.000000   0.000000   0.000000
  -7.75   -0.668700   +0.035590    0.000000    0.000000   0.000000   0.000000
  -7.50   -0.654400   +0.033990    0.000000    0.000000   0.000000   0.000000
  -7.25   -0.639100   +0.032230    0.000000    0.000000   0.000000   0.000000
  -7.00   -0.622400   +0.030580    0.000000    0.000000   0.000000   0.000000
  -6.75   -0.604900   +0.029140    0.000000    0.000000   0.000000   0.000000
  -6.50   -0.587100   +0.028190    0.000000    0.000000   0.000000   0.000000
  -6.25   -0.568600   +0.027390    0.000000    0.000000   0.000000   0.000000
  -6.00   -0.549700   +0.026430    0.000000    0.000000   0.000000   0.000000
  -5.75   -0.530600   +0.025640    0.000000    0.000000   0.000000   0.000000
  -5.50   -0.510300   +0.024800    0.000000    0.000000   0.000000   0.000000
  -5.25   -0.490500   +0.024020    0.000000    0.000000   0.000000   0.000000
  -5.00   -0.470100   +0.023500    0.000000    0.000000   0.000000   0.000000
  -4.75   -0.450000   +0.022910    0.000000    0.000000   0.000000   0.000000
  -4.50   -0.423700   +0.022310    0.000000    0.000000   0.000000   0.000000
  -4.25   -0.385800   +0.021760    0.000000    0.000000   0.000000   0.000000
  -4.00   -0.349200   +0.021230    0.000000    0.000000   0.000000   0.000000
  -3.75   -0.311000   +0.020760    0.000000    0.000000   0.000000   0.000000
  -3.50   -0.275500   +0.020320    0.000000    0.000000   0.000000   0.000000
  -3.25   -0.235800   +0.019900    0.000000    0.000000   0.000000   0.000000
  -3.00   -0.203600   +0.019460    0.000000    0.000000   0.000000   0.000000
  -2.75   -0.164600   +0.019030    0.000000    0.000000   0.000000   0.000000
  -2.50   -0.133700   +0.018610    0.000000    0.000000   0.000000   0.000000
  -2.25   -0.098400   +0.018170    0.000000    0.000000   0.000000   0.000000
  -2.00   -0.066000   +0.017800    0.000000    0.000000   0.000000   0.000000
  -1.75   -0.037100   +0.017520    0.000000    0.000000   0.000000   0.000000
  -1.50   -0.000900   +0.017300    0.000000    0.000000   0.000000   0.000000
  -1.25   +0.031600   +0.017250    0.000000    0.000000   0.000000   0.000000
  -1.00   +0.079200   +0.017200    0.000000    0.000000   0.000000   0.000000
  -0.75   +0.136700   +0.017100    0.000000    0.000000   0.000000   0.000000
  -0.50   +0.187700   +0.017070    0.000000    0.000000   0.000000   0.000000
  -0.25   +0.246000   +0.016860    0.000000    0.000000   0.000000   0.000000
  +0.00   +0.270100   +0.016790    0.000000    0.000000   0.000000   0.000000
  +0.25   +0.300600   +0.016650    0.000000    0.000000   0.000000   0.000000
  +0.50   +0.323000   +0.016660    0.000000    0.000000   0.000000   0.000000
  +0.75   +0.353100   +0.016550    0.000000    0.000000   0.000000   0.000000
  +1.00   +0.375100   +0.016620    0.000000    0.000000   0.000000   0.000000
  +1.25   +0.402100   +0.016610    0.000000    0.000000   0.000000   0.000000
  +1.50   +0.426400   +0.016660    0.000000    0.000000   0.000000   0.000000
  +1.75   +0.451700   +0.016730    0.000000    0.000000   0.000000   0.000000
  +2.00   +0.477300   +0.016800    0.000000    0.000000   0.000000   0.000000
  +2.25   +0.501500   +0.016940    0.000000    0.000000   0.000000   0.000000
  +2.50   +0.527900   +0.017020    0.000000    0.000000   0.000000   0.000000
  +2.75   +0.551400   +0.017220    0.000000    0.000000   0.000000   0.000000
  +3.00   +0.578200   +0.017330    0.000000    0.000000   0.000000   0.000000
  +3.25   +0.601000   +0.017580    0.000000    0.000000   0.000000   0.000000
  +3.50   +0.627700   +0.017730    0.000000    0.000000   0.000000   0.000000
  +3.75   +0.650300   +0.018000    0.000000    0.000000   0.000000   0.000000
  +4.00   +0.675900   +0.018210    0.000000    0.000000   0.000000   0.000000
  +4.25   +0.699000   +0.018490    0.000000    0.000000   0.000000   0.000000
  +4.50   +0.723500   +0.018750    0.000000    0.000000   0.000000   0.000000
  +4.75   +0.747200   +0.019020    0.000000    0.000000   0.000000   0.000000
  +5.00   +0.770300   +0.019330    0.000000    0.000000   0.000000   0.000000
  +5.25   +0.794300   +0.019600    0.000000    0.000000   0.000000   0.000000
  +5.50   +0.816100   +0.019930    0.000000    0.000000   0.000000   0.000000
  +5.75   +0.838200   +0.020270    0.000000    0.000000   0.000000   0.000000
  +6.00   +0.860000   +0.020610    0.000000    0.000000   0.000000   0.000000
  +6.25   +0.881100   +0.020980    0.000000    0.000000   0.000000   0.000000
  +6.50   +0.900900   +0.021390    0.000000    0.000000   0.000000   0.000000
  +6.75   +0.920200   +0.021840    0.000000    0.000000   0.000000   0.000000
  +7.00   +0.938600   +0.022340    0.000000    0.000000   0.000000   0.000000
  +7.25   +0.956000   +0.022940    0.000000    0.000000   0.000000   0.000000
  +7.50   +0.972600   +0.023620    0.000000    0.000000   0.000000   0.000000
  +7.75   +0.988000   +0.024420    0.000000    0.000000   0.000000   0.000000
  +8.00   +1.002000   +0.025350    0.000000    0.000000   0.000000   0.000000
  +8.25   +1.014400   +0.026420    0.000000    0.000000   0.000000   0.000000
  +8.50   +1.026600   +0.027550    0.000000    0.000000   0.000000   0.000000
  +8.75   +1.037600   +0.028750    0.000000    0.000000   0.000000   0.000000
  +9.00   +1.047900   +0.030000    0.000000    0.000000   0.000000   0.000000
