xflr5 v6.48

 Calculated polar for: NACA 2412

 1 1 Reynolds number fixed          Mach number fixed

 xtrf =   1.000 (top)        1.000 (bottom)
 Mach =   0.000     Re =     0.090 e 6     Ncrit =   5.000

  alpha     CL        CD       CDp       Cm    Top Xtr Bot Xtr   Cpmin    Chinge    XCp
  -9.00   -0.741600   +0.038700    0.000000    0.000000   0.000000   0.000000
  -8.75   -0.734800   +0.036250    0.000000    0.000000   0.000000   0.000000
  -8.50   -0.724500   +0.034130    0.000000    0.000000   0.000000   0.000000
  -8.25   -0.711100   +0.032590    0.000000    0.000000   0.000000   0.000000
  -8.00   -0.696100   +0.031600    0.000000    0.000000   0.000000   0.000000
  -7.75   -0.680600   +0.030670    0.000000    0.000000   0.000000   0.000000
  -7.50   -0.664700   +0.029480    0.000000    0.000000   0.000000   0.000000
  -7.25   -0.648000   +0.028120    0.000000    0.000000   0.000000   0.000000
  -7.00   -0.630700   +0.027010    0.000000    0.000000   0.000000   0.000000
  -6.75   -0.612600   +0.026080    0.000000    0.000000   0.000000   0.000000
  -6.50   -0.593800   +0.025140    0.000000    0.000000   0.000000   0.000000
  -6.25   -0.574200   +0.024290    0.000000    0.000000   0.000000   0.000000
  -6.00   -0.555600   +0.023530    0.000000    0.000000   0.000000   0.000000
  -5.75   -0.535800   +0.023000    0.000000    0.000000   0.000000   0.000000
  -5.50   -0.515400   +0.022310    0.000000    0.000000   0.000000   0.000000
  -5.25   -0.479200   +0.021600    0.000000    0.000000   0.000000   0.000000
  -5.00   -0.443900   +0.020930    0.000000    0.000000   0.000000   0.000000
  -4.75   -0.407500   +0.020400    0.000000    0.000000   0.000000   0.000000
  -4.50   -0.371100   +0.019890    0.000000    0.000000   0.000000   0.000000
  -4.25   -0.336800   +0.019370    0.000000    0.000000   0.000000   0.000000
  -4.00   -0.298600   +0.018880    0.000000    0.000000   0.000000   0.000000
  -3.75   -0.266600   +0.018430    0.000000    0.000000   0.000000   0.000000
  -3.50   -0.230100   +0.018020    0.000000    0.000000   0.000000   0.000000
  -3.25   -0.192700   +0.017590    0.000000    0.000000   0.000000   0.000000
  -3.00   -0.162000   +0.017220    0.000000    0.000000   0.000000   0.000000
  -2.75   -0.125100   +0.016770    0.000000    0.000000   0.000000   0.000000
  -2.50   -0.095000   +0.016360    0.000000    0.000000   0.000000   0.000000
  -2.25   -0.064200   +0.015940    0.000000    0.000000   0.000000   0.000000
  -2.00   -0.029400   +0.015510    0.000000    0.000000   0.000000   0.000000
  -1.75   -0.005300   +0.015220    0.000000    0.000000   0.000000   0.000000
  -1.50   +0.025900   +0.014920    0.000000    0.000000   0.000000   0.000000
  -1.25   +0.054600   +0.014750    0.000000    0.000000   0.000000   0.000000
  -1.00   +0.087600   +0.014640    0.000000    0.000000   0.000000   0.000000
  -0.75   +0.131300   +0.014520    0.000000    0.000000   0.000000   0.000000
  -0.50   +0.170300   +0.014530    0.000000    0.000000   0.000000   0.000000
  -0.25   +0.219000   +0.014430    0.000000    0.000000   0.000000   0.000000
  +0.00   +0.265300   +0.014390    0.000000    0.000000   0.000000   0.000000
  +0.25   +0.317700   +0.014230    0.000000    0.000000   0.000000   0.000000
  +0.50   +0.343300   +0.014220    0.000000    0.000000   0.000000   0.000000
  +0.75   +0.370000   +0.014150    0.000000    0.000000   0.000000   0.000000
  +1.00   +0.392200   +0.014200    0.000000    0.000000   0.000000   0.000000
  +1.25   +0.417400   +0.014220    0.000000    0.000000   0.000000   0.000000
  +1.50   +0.441300   +0.014280    0.000000    0.000000   0.000000   0.000000
  +1.75   +0.465400   +0.014370    0.000000    0.000000   0.000000   0.000000
  +2.00   +0.490200   +0.014460    0.000000    0.000000   0.000000   0.000000
  +2.25   +0.513700   +0.014600    0.000000    0.000000   0.000000   0.000000
  +2.50   +0.538900   +0.014730    0.000000    0.000000   0.000000   0.000000
  +2.75   +0.562100   +0.014910    0.000000    0.000000   0.000000   0.000000
  +3.00   +0.587300   +0.000439    0.000000    0.000000   0.000000   0.000000
  +3.25   +0.610500   +0.015280    0.000000    0.000000   0.000000   0.000000
  +3.50   +0.635300   +0.015490    0.000000    0.000000   0.000000   0.000000
  +3.75   +0.658900   +0.015710    0.000000    0.000000   0.000000   0.000000
  +4.00   +0.683300   +0.015950    0.000000    0.000000   0.000000   0.000000
  +4.25   +0.706900   +0.016190    0.000000    0.000000   0.000000   0.000000
  +4.50   +0.730700   +0.016450    0.000000    0.000000   0.000000   0.000000
  +4.75   +0.754400   +0.016720    0.000000    0.000000   0.000000   0.000000
  +5.00   +0.777400   +0.017000    0.000000    0.000000   0.000000   0.000000
  +5.25   +0.800600   +0.017300    0.000000    0.000000   0.000000   0.000000
  +5.50   +0.823000   +0.017610    0.000000    0.000000   0.000000   0.000000
  +5.75   +0.845200   +0.017930    0.000000    0.000000   0.000000   0.000000
  +6.00   +0.867000   +0.018280    0.000000    0.000000   0.000000   0.000000
  +6.25   +0.888200   +0.018660    0.000000    0.000000   0.000000   0.000000
  +6.50   +0.908700   +0.019080    0.000000    0.000000   0.000000   0.000000
  +6.75   +0.928600   +0.019550    0.000000    0.000000   0.000000   0.000000
  +7.00   +0.947700   +0.020090    0.000000    0.000000   0.000000   0.000000
  +7.25   +0.965700   +0.020730    0.000000    0.000000   0.000000   0.000000
  +7.50   +0.982500   +0.021480    0.000000    0.000000   0.000000   0.000000
  +7.75   +0.999000   +0.022280    0.000000    0.000000   0.000000   0.000000
  +8.00   +1.014700   +0.023170    0.000000    0.000000   0.000000   0.000000
  +8.25   +1.029300   +0.024150    0.000000    0.000000   0.000000   0.000000
  +8.50   +1.043200   +0.025170    0.000000    0.000000   0.000000   0.000000
  +8.75   +1.056800   +0.026200    0.000000    0.000000   0.000000   0.000000
  +9.00   +1.068900   +0.027320    0.000000    0.000000   0.000000   0.000000
