xflr5 v6.48

 Calculated polar for: NACA 2412

 1 1 Reynolds number fixed          Mach number fixed         

 xtrf =   1.000 (top)        1.000 (bottom)
 Mach =   0.000     Re =     0.100 e 6     Ncrit =   5.000

  alpha     CL        CD       CDp       Cm    Top Xtr Bot Xtr   Cpmin    Chinge    XCp    
 ------- -------- --------- --------- -------- ------- ------- -------- --------- ---------
  -9.000  -0.7493   0.03668   0.02910  -0.0482  1.0000  0.0426  -4.5266   0.0000   0.1762
  -8.750  -0.7405   0.03457   0.02667  -0.0461  1.0000  0.0439  -4.4556   0.0000   0.1784
  -8.500  -0.7293   0.03265   0.02443  -0.0441  1.0000  0.0453  -4.3720   0.0000   0.1804
  -8.250  -0.7158   0.03099   0.02244  -0.0422  1.0000  0.0467  -4.2747   0.0000   0.1821
  -8.000  -0.7015   0.02943   0.02077  -0.0405  1.0000  0.0483  -4.1542   0.0000   0.1835
  -7.750  -0.6856   0.02861   0.01996  -0.0391  1.0000  0.0507  -3.9965   0.0000   0.1846
  -7.500  -0.6688   0.02786   0.01913  -0.0376  1.0000  0.0537  -3.8441   0.0000   0.1856
  -7.250  -0.6514   0.02690   0.01796  -0.0361  1.0000  0.0570  -3.7089   0.0000   0.1866
  -7.000  -0.6333   0.02582   0.01666  -0.0346  1.0000  0.0595  -3.5808   0.0000   0.1875
  -6.750  -0.6156   0.02474   0.01560  -0.0333  1.0000  0.0620  -3.4377   0.0000   0.1882
  -6.500  -0.5969   0.02397   0.01474  -0.0320  1.0000  0.0650  -3.2895   0.0000   0.1889
  -6.250  -0.5776   0.02321   0.01389  -0.0307  1.0000  0.0686  -3.1478   0.0000   0.1894
  -6.000  -0.5575   0.02254   0.01307  -0.0295  1.0000  0.0728  -3.0232   0.0000   0.1898
  -5.750  -0.5304   0.02187   0.01247  -0.0301  0.9976  0.0792  -2.8750   0.0000   0.1861
  -5.500  -0.4938   0.02127   0.01173  -0.0322  0.9930  0.0875  -2.7160   0.0000   0.1777
  -5.250  -0.4600   0.02053   0.01105  -0.0339  0.9874  0.0953  -2.5604   0.0000   0.1692
  -5.000  -0.4238   0.01993   0.01041  -0.0359  0.9821  0.1056  -2.4024   0.0000   0.1581
  -4.750  -0.3888   0.01946   0.00985  -0.0377  0.9761  0.1196  -2.2424   0.0000   0.1458
  -4.500  -0.3543   0.01891   0.00939  -0.0394  0.9694  0.1349  -2.0884   0.0000   0.1315
  -4.250  -0.3160   0.01842   0.00895  -0.0418  0.9643  0.1542  -1.9273   0.0000   0.1101
  -4.000  -0.2847   0.01799   0.00859  -0.0428  0.9559  0.1763  -1.7851   0.0000   0.0921
  -3.750  -0.2485   0.01752   0.00826  -0.0447  0.9492  0.2028  -1.6445   0.0000   0.0622
  -3.500  -0.2091   0.01709   0.00795  -0.0472  0.9444  0.2370  -1.5123   0.0000   0.0156
  -3.250  -0.1808   0.01672   0.00765  -0.0474  0.9340  0.2695  -1.4027   0.0000  -0.0214
  -3.000  -0.1452   0.01630   0.00738  -0.0490  0.9272  0.3106  -1.2819   0.0000  -0.0980
  -2.750  -0.1133   0.01590   0.00716  -0.0499  0.9192  0.3550  -1.1703   0.0000  -0.2020
  -2.500  -0.0840   0.01551   0.00697  -0.0501  0.9094  0.4042  -1.0671   0.0000  -0.3608
  -2.250  -0.0502   0.01506   0.00679  -0.0511  0.9026  0.4697  -0.9726   0.0000  -0.7901
  -2.000  -0.0239   0.01472   0.00671  -0.0506  0.8914  0.5377  -0.8914   0.0000  -1.8991
  -1.750   0.0062   0.01434   0.00661  -0.0505  0.8820  0.6117  -0.8055   0.0000   8.5464
  -1.500   0.0356   0.01405   0.00650  -0.0501  0.8729  0.6834  -0.7264   0.0000   1.6720
  -1.250   0.0618   0.01386   0.00650  -0.0489  0.8609  0.7479  -0.6598   0.0000   1.0483
  -1.000   0.0957   0.01367   0.00643  -0.0489  0.8523  0.8098  -0.5848   0.0000   0.7650
  -0.750   0.1274   0.01363   0.00645  -0.0488  0.8391  0.8616  -0.5211   0.0000   0.6350
  -0.500   0.1682   0.01356   0.00634  -0.0506  0.8285  0.9043  -0.5116   0.0000   0.5511
  -0.250   0.2102   0.01354   0.00627  -0.0529  0.8157  0.9371  -0.5412   0.0000   0.5013
   0.000   0.2533   0.01349   0.00612  -0.0556  0.8025  0.9637  -0.5721   0.0000   0.4683
   0.250   0.3007   0.01344   0.00599  -0.0593  0.7879  0.9833  -0.6069   0.0000   0.4459
   0.500   0.3495   0.01335   0.00578  -0.0635  0.7731  0.9996  -0.6445   0.0000   0.4298
   0.750   0.3731   0.01335   0.00570  -0.0626  0.7558  1.0000  -0.6682   0.0000   0.4158
   1.000   0.3984   0.01334   0.00556  -0.0619  0.7405  1.0000  -0.6953   0.0000   0.4031
   1.250   0.4212   0.01341   0.00556  -0.0609  0.7228  1.0000  -0.7216   0.0000   0.3920
   1.500   0.4456   0.01347   0.00551  -0.0601  0.7069  1.0000  -0.7509   0.0000   0.3819
   1.750   0.4695   0.01356   0.00551  -0.0592  0.6901  1.0000  -0.7820   0.0000   0.3729
   2.000   0.4934   0.01368   0.00558  -0.0583  0.6740  1.0000  -0.8161   0.0000   0.3647
   2.250   0.5176   0.01380   0.00560  -0.0574  0.6579  1.0000  -0.8542   0.0000   0.3572
   2.500   0.5412   0.01396   0.00571  -0.0565  0.6419  1.0000  -0.8963   0.0000   0.3505
   2.750   0.5657   0.01412   0.00575  -0.0556  0.6266  1.0000  -0.9451   0.0000   0.3442
   3.000   0.5892   0.01430   0.00592  -0.0547  0.6105  1.0000  -0.9981   0.0000   0.3385
   3.500   0.6372   0.01470   0.00621  -0.0529  0.5792  1.0000  -1.1247   0.0000   0.3283
   3.750   0.6616   0.01493   0.00633  -0.0520  0.5644  1.0000  -1.1950   0.0000   0.3238
   4.000   0.6852   0.01515   0.00662  -0.0512  0.5477  1.0000  -1.2738   0.0000   0.3195
   4.250   0.7092   0.01540   0.00680  -0.0503  0.5322  1.0000  -1.3561   0.0000   0.3155
   4.500   0.7327   0.01565   0.00703  -0.0493  0.5148  1.0000  -1.4401   0.0000   0.3118
   4.750   0.7563   0.01592   0.00728  -0.0484  0.4979  1.0000  -1.5371   0.0000   0.3082
   5.000   0.7795   0.01621   0.00748  -0.0474  0.4801  1.0000  -1.6358   0.0000   0.3048
   5.250   0.8024   0.01648   0.00778  -0.0465  0.4605  1.0000  -1.7347   0.0000   0.3016
   5.500   0.8251   0.01679   0.00806  -0.0454  0.4408  1.0000  -1.8353   0.0000   0.2985
   5.750   0.8472   0.01713   0.00840  -0.0443  0.4199  1.0000  -1.9454   0.0000   0.2955
   6.000   0.8689   0.01748   0.00872  -0.0432  0.3969  1.0000  -2.0650   0.0000   0.2926
   6.250   0.8903   0.01785   0.00907  -0.0420  0.3721  1.0000  -2.1851   0.0000   0.2898
   6.500   0.9110   0.01828   0.00943  -0.0407  0.3457  1.0000  -2.3053   0.0000   0.2871
   6.750   0.9308   0.01878   0.00984  -0.0394  0.3178  1.0000  -2.4250   0.0000   0.2844
   7.000   0.9499   0.01935   0.01031  -0.0380  0.2883  1.0000  -2.5442   0.0000   0.2818
   7.250   0.9686   0.01998   0.01085  -0.0366  0.2581  1.0000  -2.6633   0.0000   0.2793
   7.500   0.9860   0.02071   0.01146  -0.0351  0.2275  1.0000  -2.7802   0.0000   0.2768
   7.750   1.0023   0.02154   0.01221  -0.0335  0.1994  1.0000  -2.8987   0.0000   0.2743
   8.000   1.0183   0.02242   0.01297  -0.0319  0.1734  1.0000  -3.0352   0.0000   0.2719
   8.250   1.0339   0.02333   0.01380  -0.0303  0.1507  1.0000  -3.1700   0.0000   0.2696
   8.500   1.0487   0.02430   0.01470  -0.0286  0.1331  1.0000  -3.3025   0.0000   0.2672
   8.750   1.0620   0.02534   0.01566  -0.0267  0.1185  1.0000  -3.4311   0.0000   0.2648
   9.000   1.0756   0.02634   0.01666  -0.0249  0.1058  1.0000  -3.5612   0.0000   0.2625


