xflr5 v6.48

 Calculated polar for: NACA 2412

 1 1 Reynolds number fixed          Mach number fixed

 xtrf =   1.000 (top)        1.000 (bottom)
 Mach =   0.000     Re =     0.080 e 6     Ncrit =   5.000

  alpha     CL        CD       CDp       Cm    Top Xtr Bot Xtr   Cpmin    Chinge    XCp
  -9.00   -0.735200   +0.040630    0.000000    0.000000   0.000000   0.000000
  -8.75   -0.725300   +0.038810    0.000000    0.000000   0.000000   0.000000
  -8.50   -0.714200   +0.037170    0.000000    0.000000   0.000000   0.000000
  -8.25   -0.702100   +0.035650    0.000000    0.000000   0.000000   0.000000
  -8.00   -0.689300   +0.034220    0.000000    0.000000   0.000000   0.000000
  -7.75   -0.675900   +0.032650    0.000000    0.000000   0.000000   0.000000
  -7.50   -0.660800   +0.031160    0.000000    0.000000   0.000000   0.000000
  -7.25   -0.644200   +0.029990    0.000000    0.000000   0.000000   0.000000
  -7.00   -0.627000   +0.028780    0.000000    0.000000   0.000000   0.000000
  -6.75   -0.608900   +0.027560    0.000000    0.000000   0.000000   0.000000
  -6.50   -0.589900   +0.026460    0.000000    0.000000   0.000000   0.000000
  -6.25   -0.571900   +0.025550    0.000000    0.000000   0.000000   0.000000
  -6.00   -0.552800   +0.024920    0.000000    0.000000   0.000000   0.000000
  -5.75   -0.533100   +0.024130    0.000000    0.000000   0.000000   0.000000
  -5.50   -0.513500   +0.023440    0.000000    0.000000   0.000000   0.000000
  -5.25   -0.492900   +0.022790    0.000000    0.000000   0.000000   0.000000
  -5.00   -0.467800   +0.022150    0.000000    0.000000   0.000000   0.000000
  -4.75   -0.430500   +0.021560    0.000000    0.000000   0.000000   0.000000
  -4.50   -0.394600   +0.020980    0.000000    0.000000   0.000000   0.000000
  -4.25   -0.356600   +0.020460    0.000000    0.000000   0.000000   0.000000
  -4.00   -0.322600   +0.019950    0.000000    0.000000   0.000000   0.000000
  -3.75   -0.285000   +0.019490    0.000000    0.000000   0.000000   0.000000
  -3.50   -0.250500   +0.019090    0.000000    0.000000   0.000000   0.000000
  -3.25   -0.215100   +0.018640    0.000000    0.000000   0.000000   0.000000
  -3.00   -0.175700   +0.018220    0.000000    0.000000   0.000000   0.000000
  -2.75   -0.146100   +0.017820    0.000000    0.000000   0.000000   0.000000
  -2.50   -0.108300   +0.017350    0.000000    0.000000   0.000000   0.000000
  -2.25   -0.078000   +0.016960    0.000000    0.000000   0.000000   0.000000
  -2.00   -0.047700   +0.016570    0.000000    0.000000   0.000000   0.000000
  -1.75   -0.013200   +0.016200    0.000000    0.000000   0.000000   0.000000
  -1.50   +0.010700   +0.016020    0.000000    0.000000   0.000000   0.000000
  -1.25   +0.046100   +0.015830    0.000000    0.000000   0.000000   0.000000
  -1.00   +0.083900   +0.015780    0.000000    0.000000   0.000000   0.000000
  -0.75   +0.128200   +0.015740    0.000000    0.000000   0.000000   0.000000
  -0.50   +0.180700   +0.015620    0.000000    0.000000   0.000000   0.000000
  -0.25   +0.228500   +0.015580    0.000000    0.000000   0.000000   0.000000
  +0.00   +0.285200   +0.015380    0.000000    0.000000   0.000000   0.000000
  +0.25   +0.310100   +0.015340    0.000000    0.000000   0.000000   0.000000
  +0.50   +0.338400   +0.015220    0.000000    0.000000   0.000000   0.000000
  +0.75   +0.360100   +0.015250    0.000000    0.000000   0.000000   0.000000
  +1.00   +0.386700   +0.015220    0.000000    0.000000   0.000000   0.000000
  +1.25   +0.410300   +0.015270    0.000000    0.000000   0.000000   0.000000
  +1.50   +0.435300   +0.015320    0.000000    0.000000   0.000000   0.000000
  +1.75   +0.460300   +0.015370    0.000000    0.000000   0.000000   0.000000
  +2.00   +0.484200   +0.015490    0.000000    0.000000   0.000000   0.000000
  +2.25   +0.510000   +0.015580    0.000000    0.000000   0.000000   0.000000
  +2.50   +0.533200   +0.015750    0.000000    0.000000   0.000000   0.000000
  +2.75   +0.559400   +0.015870    0.000000    0.000000   0.000000   0.000000
  +3.00   +0.582200   +0.016080    0.000000    0.000000   0.000000   0.000000
  +3.25   +0.607900   +0.016250    0.000000    0.000000   0.000000   0.000000
  +3.50   +0.631100   +0.016480    0.000000    0.000000   0.000000   0.000000
  +3.75   +0.656100   +0.016700    0.000000    0.000000   0.000000   0.000000
  +4.00   +0.679700   +0.016940    0.000000    0.000000   0.000000   0.000000
  +4.25   +0.704000   +0.017190    0.000000    0.000000   0.000000   0.000000
  +4.50   +0.727800   +0.017440    0.000000    0.000000   0.000000   0.000000
  +4.75   +0.751200   +0.017730    0.000000    0.000000   0.000000   0.000000
  +5.00   +0.775300   +0.018010    0.000000    0.000000   0.000000   0.000000
  +5.25   +0.797500   +0.018310    0.000000    0.000000   0.000000   0.000000
  +5.50   +0.820200   +0.018620    0.000000    0.000000   0.000000   0.000000
  +5.75   +0.842600   +0.018950    0.000000    0.000000   0.000000   0.000000
  +6.00   +0.864000   +0.019300    0.000000    0.000000   0.000000   0.000000
  +6.25   +0.885000   +0.019670    0.000000    0.000000   0.000000   0.000000
  +6.50   +0.905500   +0.020080    0.000000    0.000000   0.000000   0.000000
  +6.75   +0.925100   +0.020540    0.000000    0.000000   0.000000   0.000000
  +7.00   +0.943900   +0.021070    0.000000    0.000000   0.000000   0.000000
  +7.25   +0.961500   +0.021690    0.000000    0.000000   0.000000   0.000000
  +7.50   +0.978300   +0.022410    0.000000    0.000000   0.000000   0.000000
  +7.75   +0.994500   +0.023210    0.000000    0.000000   0.000000   0.000000
  +8.00   +1.009200   +0.024140    0.000000    0.000000   0.000000   0.000000
  +8.25   +1.022800   +0.025160    0.000000    0.000000   0.000000   0.000000
  +8.50   +1.035400   +0.026260    0.000000    0.000000   0.000000   0.000000
  +8.75   +1.047800   +0.027380    0.000000    0.000000   0.000000   0.000000
  +9.00   +1.060300   +0.028490    0.000000    0.000000   0.000000   0.000000
