xflr5 v6.48

 Calculated polar for: NACA 2412

 1 1 Reynolds number fixed          Mach number fixed

 xtrf =   1.000 (top)        1.000 (bottom)
 Mach =   0.000     Re =     0.060 e 6     Ncrit =   5.000

  alpha     CL        CD       CDp       Cm    Top Xtr Bot Xtr   Cpmin    Chinge    XCp
  -9.00   -0.692500   +0.050220    0.000000    0.000000   0.000000   0.000000
  -8.75   -0.698300   +0.046610    0.000000    0.000000   0.000000   0.000000
  -8.50   -0.685300   +0.045580    0.000000    0.000000   0.000000   0.000000
  -8.25   -0.675400   +0.044070    0.000000    0.000000   0.000000   0.000000
  -8.00   -0.668100   +0.041700    0.000000    0.000000   0.000000   0.000000
  -7.75   -0.659800   +0.038950    0.000000    0.000000   0.000000   0.000000
  -7.50   -0.648500   +0.036410    0.000000    0.000000   0.000000   0.000000
  -7.25   -0.633800   +0.034450    0.000000    0.000000   0.000000   0.000000
  -7.00   -0.617400   +0.033090    0.000000    0.000000   0.000000   0.000000
  -6.75   -0.600500   +0.031770    0.000000    0.000000   0.000000   0.000000
  -6.50   -0.583000   +0.030560    0.000000    0.000000   0.000000   0.000000
  -6.25   -0.565400   +0.029550    0.000000    0.000000   0.000000   0.000000
  -6.00   -0.546600   +0.028540    0.000000    0.000000   0.000000   0.000000
  -5.75   -0.526400   +0.027400    0.000000    0.000000   0.000000   0.000000
  -5.50   -0.507400   +0.026470    0.000000    0.000000   0.000000   0.000000
  -5.25   -0.487300   +0.025790    0.000000    0.000000   0.000000   0.000000
  -5.00   -0.467800   +0.025090    0.000000    0.000000   0.000000   0.000000
  -4.75   -0.447000   +0.024380    0.000000    0.000000   0.000000   0.000000
  -4.50   -0.426500   +0.023790    0.000000    0.000000   0.000000   0.000000
  -4.25   -0.405800   +0.023280    0.000000    0.000000   0.000000   0.000000
  -4.00   -0.384400   +0.022790    0.000000    0.000000   0.000000   0.000000
  -3.75   -0.346500   +0.022300    0.000000    0.000000   0.000000   0.000000
  -3.50   -0.308500   +0.021810    0.000000    0.000000   0.000000   0.000000
  -3.25   -0.269100   +0.021410    0.000000    0.000000   0.000000   0.000000
  -3.00   -0.233100   +0.020950    0.000000    0.000000   0.000000   0.000000
  -2.75   -0.195300   +0.020520    0.000000    0.000000   0.000000   0.000000
  -2.50   -0.162400   +0.020060    0.000000    0.000000   0.000000   0.000000
  -2.25   -0.125500   +0.019640    0.000000    0.000000   0.000000   0.000000
  -2.00   -0.097500   +0.019310    0.000000    0.000000   0.000000   0.000000
  -1.75   -0.061000   +0.019060    0.000000    0.000000   0.000000   0.000000
  -1.50   -0.030200   +0.018970    0.000000    0.000000   0.000000   0.000000
  -1.25   +0.019900   +0.018970    0.000000    0.000000   0.000000   0.000000
  -1.00   +0.082100   +0.018950    0.000000    0.000000   0.000000   0.000000
  -0.75   +0.142200   +0.018910    0.000000    0.000000   0.000000   0.000000
  -0.50   +0.192000   +0.018750    0.000000    0.000000   0.000000   0.000000
  -0.25   +0.219900   +0.018680    0.000000    0.000000   0.000000   0.000000
  +0.00   +0.252100   +0.018550    0.000000    0.000000   0.000000   0.000000
  +0.25   +0.276600   +0.018550    0.000000    0.000000   0.000000   0.000000
  +0.50   +0.309400   +0.018420    0.000000    0.000000   0.000000   0.000000
  +0.75   +0.331700   +0.018490    0.000000    0.000000   0.000000   0.000000
  +1.00   +0.365100   +0.018350    0.000000    0.000000   0.000000   0.000000
  +1.25   +0.386000   +0.018490    0.000000    0.000000   0.000000   0.000000
  +1.50   +0.415500   +0.018450    0.000000    0.000000   0.000000   0.000000
  +1.75   +0.439100   +0.018560    0.000000    0.000000   0.000000   0.000000
  +2.00   +0.466300   +0.018620    0.000000    0.000000   0.000000   0.000000
  +2.25   +0.491300   +0.018730    0.000000    0.000000   0.000000   0.000000
  +2.50   +0.517000   +0.018860    0.000000    0.000000   0.000000   0.000000
  +2.75   +0.542800   +0.000549    0.000000    0.000000   0.000000   0.000000
  +3.00   +0.567400   +0.019170    0.000000    0.000000   0.000000   0.000000
  +3.25   +0.593700   +0.019310    0.000000    0.000000   0.000000   0.000000
  +3.50   +0.617500   +0.019570    0.000000    0.000000   0.000000   0.000000
  +3.75   +0.644200   +0.019720    0.000000    0.000000   0.000000   0.000000
  +4.00   +0.667100   +0.020030    0.000000    0.000000   0.000000   0.000000
  +4.25   +0.694200   +0.020190    0.000000    0.000000   0.000000   0.000000
  +4.50   +0.715900   +0.020540    0.000000    0.000000   0.000000   0.000000
  +4.75   +0.741300   +0.020780    0.000000    0.000000   0.000000   0.000000
  +5.00   +0.764000   +0.021090    0.000000    0.000000   0.000000   0.000000
  +5.25   +0.787000   +0.021410    0.000000    0.000000   0.000000   0.000000
  +5.50   +0.811600   +0.021670    0.000000    0.000000   0.000000   0.000000
  +5.75   +0.832100   +0.022050    0.000000    0.000000   0.000000   0.000000
  +6.00   +0.853500   +0.022410    0.000000    0.000000   0.000000   0.000000
  +6.25   +0.874800   +0.022760    0.000000    0.000000   0.000000   0.000000
  +6.50   +0.895200   +0.023140    0.000000    0.000000   0.000000   0.000000
  +6.75   +0.914100   +0.023580    0.000000    0.000000   0.000000   0.000000
  +7.00   +0.932000   +0.024070    0.000000    0.000000   0.000000   0.000000
  +7.25   +0.948900   +0.024630    0.000000    0.000000   0.000000   0.000000
  +7.50   +0.964800   +0.025290    0.000000    0.000000   0.000000   0.000000
  +7.75   +0.979600   +0.026060    0.000000    0.000000   0.000000   0.000000
  +8.00   +0.992800   +0.026970    0.000000    0.000000   0.000000   0.000000
  +8.25   +1.004500   +0.028020    0.000000    0.000000   0.000000   0.000000
  +8.50   +1.015000   +0.029220    0.000000    0.000000   0.000000   0.000000
  +8.75   +1.025000   +0.030490    0.000000    0.000000   0.000000   0.000000
  +9.00   +1.034400   +0.031830    0.000000    0.000000   0.000000   0.000000
