xflr5 v6.48

 Calculated polar for: NACA 1410

 1 1 Reynolds number fixed          Mach number fixed         

 xtrf =   1.000 (top)        1.000 (bottom)
 Mach =   0.000     Re =     0.070 e 6     Ncrit =   5.000

  alpha     CL        CD       CDp       Cm    Top Xtr Bot Xtr   Cpmin    Chinge    XCp    
 ------- -------- --------- --------- -------- ------- ------- -------- --------- ---------
  -9.000  -0.7474   0.05158   0.04441  -0.0369  1.0000  0.0411  -4.0887   0.0000   0.1932
  -8.750  -0.7456   0.04821   0.04070  -0.0361  1.0000  0.0432  -4.0556   0.0000   0.1944
  -8.500  -0.7429   0.04445   0.03640  -0.0349  1.0000  0.0453  -4.0503   0.0000   0.1959
  -8.250  -0.7358   0.04090   0.03223  -0.0334  1.0000  0.0466  -4.0292   0.0000   0.1976
  -8.000  -0.7235   0.03778   0.02872  -0.0321  1.0000  0.0477  -3.9845   0.0000   0.1988
  -7.750  -0.7073   0.03552   0.02633  -0.0310  1.0000  0.0492  -3.8843   0.0000   0.1995
  -7.500  -0.6898   0.03360   0.02420  -0.0299  1.0000  0.0512  -3.7792   0.0000   0.2001
  -7.250  -0.6712   0.03171   0.02198  -0.0287  1.0000  0.0536  -3.6763   0.0000   0.2009
  -7.000  -0.6515   0.02988   0.01985  -0.0275  1.0000  0.0566  -3.5786   0.0000   0.2016
  -6.750  -0.6318   0.02843   0.01822  -0.0264  1.0000  0.0611  -3.4495   0.0000   0.2022
  -6.500  -0.6120   0.02745   0.01723  -0.0254  1.0000  0.0667  -3.2926   0.0000   0.2027
  -6.250  -0.5906   0.02616   0.01567  -0.0241  1.0000  0.0718  -3.1719   0.0000   0.2034
  -6.000  -0.5704   0.02483   0.01438  -0.0230  1.0000  0.0764  -3.0361   0.0000   0.2042
  -5.750  -0.5496   0.02379   0.01328  -0.0218  1.0000  0.0827  -2.8979   0.0000   0.2050
  -5.500  -0.5290   0.02287   0.01236  -0.0206  1.0000  0.0922  -2.7511   0.0000   0.2057
  -5.250  -0.5078   0.02204   0.01146  -0.0195  1.0000  0.1037  -2.6099   0.0000   0.2065
  -5.000  -0.4871   0.02116   0.01054  -0.0183  1.0000  0.1154  -2.4729   0.0000   0.2074
  -4.750  -0.4661   0.02038   0.00982  -0.0173  1.0000  0.1327  -2.3266   0.0000   0.2082
  -4.500  -0.4449   0.01965   0.00916  -0.0162  1.0000  0.1555  -2.1806   0.0000   0.2088
  -4.250  -0.4237   0.01892   0.00860  -0.0153  1.0000  0.1832  -2.0367   0.0000   0.2094
  -4.000  -0.4021   0.01829   0.00812  -0.0144  1.0000  0.2213  -1.9172   0.0000   0.2099
  -3.750  -0.3804   0.01769   0.00773  -0.0135  1.0000  0.2681  -1.7970   0.0000   0.2102
  -3.500  -0.3586   0.01712   0.00740  -0.0127  1.0000  0.3221  -1.6768   0.0000   0.2105
  -3.250  -0.3364   0.01660   0.00715  -0.0119  1.0000  0.3842  -1.5575   0.0000   0.2107
  -3.000  -0.3152   0.01614   0.00689  -0.0107  1.0000  0.4527  -1.4455   0.0000   0.2120
  -2.750  -0.2945   0.01572   0.00679  -0.0094  1.0000  0.5270  -1.3315   0.0000   0.2144
  -2.500  -0.2741   0.01539   0.00676  -0.0077  1.0000  0.6033  -1.2200   0.0000   0.2183
  -2.250  -0.2540   0.01515   0.00679  -0.0057  1.0000  0.6795  -1.1243   0.0000   0.2239
  -2.000  -0.2334   0.01501   0.00688  -0.0036  1.0000  0.7538  -1.0338   0.0000   0.2312
  -1.750  -0.2096   0.01500   0.00702  -0.0020  1.0000  0.8280  -0.9390   0.0000   0.2372
  -1.500  -0.1751   0.01510   0.00714  -0.0027  1.0000  0.9001  -0.8288   0.0000   0.2312
  -1.250  -0.1201   0.01524   0.00714  -0.0080  0.9969  0.9588  -0.7071   0.0000   0.1791
  -1.000  -0.0553   0.01534   0.00709  -0.0158  0.9929  0.9989  -0.5826   0.0000  -0.0421
  -0.750  -0.0108   0.01537   0.00699  -0.0199  0.9813  1.0000  -0.4984   0.0000  -1.6119
  -0.500   0.0309   0.01539   0.00691  -0.0233  0.9685  1.0000  -0.4295   0.0000   1.0079
  -0.250   0.0729   0.01540   0.00684  -0.0266  0.9554  1.0000  -0.3726   0.0000   0.6147
   0.000   0.1191   0.01539   0.00678  -0.0305  0.9445  1.0000  -0.4060   0.0000   0.5056
   0.250   0.1558   0.01536   0.00671  -0.0325  0.9278  1.0000  -0.4365   0.0000   0.4572
   0.500   0.1915   0.01532   0.00664  -0.0341  0.9110  1.0000  -0.4694   0.0000   0.4264
   0.750   0.2276   0.01527   0.00657  -0.0356  0.8941  1.0000  -0.5064   0.0000   0.4047
   1.000   0.2637   0.01520   0.00649  -0.0370  0.8771  1.0000  -0.5483   0.0000   0.3883
   1.250   0.2926   0.01518   0.00646  -0.0369  0.8556  1.0000  -0.5913   0.0000   0.3741
   1.500   0.3213   0.01517   0.00644  -0.0367  0.8339  1.0000  -0.6412   0.0000   0.3620
   1.750   0.3495   0.01517   0.00642  -0.0364  0.8116  1.0000  -0.6987   0.0000   0.3516
   2.000   0.3770   0.01518   0.00645  -0.0358  0.7889  1.0000  -0.7641   0.0000   0.3423
   2.250   0.4037   0.01521   0.00645  -0.0350  0.7653  1.0000  -0.8348   0.0000   0.3339
   2.500   0.4297   0.01527   0.00646  -0.0341  0.7407  1.0000  -0.9152   0.0000   0.3263
   2.750   0.4546   0.01538   0.00653  -0.0330  0.7144  1.0000  -0.9952   0.0000   0.3194
   3.000   0.4791   0.01553   0.00664  -0.0319  0.6870  1.0000  -1.0901   0.0000   0.3132
   3.250   0.5034   0.01570   0.00677  -0.0307  0.6588  1.0000  -1.1871   0.0000   0.3075
   3.500   0.5274   0.01590   0.00692  -0.0295  0.6296  1.0000  -1.2857   0.0000   0.3024
   3.750   0.5512   0.01614   0.00717  -0.0283  0.5990  1.0000  -1.3962   0.0000   0.2975
   4.000   0.5745   0.01641   0.00736  -0.0270  0.5669  1.0000  -1.5161   0.0000   0.2931
   4.250   0.5973   0.01672   0.00760  -0.0257  0.5324  1.0000  -1.6375   0.0000   0.2889
   4.500   0.6196   0.01705   0.00787  -0.0244  0.4951  1.0000  -1.7604   0.0000   0.2851
   4.750   0.6415   0.01745   0.00815  -0.0231  0.4554  1.0000  -1.8847   0.0000   0.2814
   5.000   0.6630   0.01789   0.00849  -0.0218  0.4121  1.0000  -2.0095   0.0000   0.2780
   5.250   0.6837   0.01842   0.00885  -0.0204  0.3646  1.0000  -2.1550   0.0000   0.2748
   5.500   0.7039   0.01906   0.00929  -0.0191  0.3123  1.0000  -2.3051   0.0000   0.2719
   5.750   0.7236   0.01984   0.00993  -0.0179  0.2585  1.0000  -2.4472   0.0000   0.2692
   6.000   0.7428   0.02078   0.01062  -0.0167  0.2076  1.0000  -2.5937   0.0000   0.2667
   6.250   0.7618   0.02183   0.01145  -0.0155  0.1667  1.0000  -2.7392   0.0000   0.2644
   6.500   0.7802   0.02298   0.01237  -0.0143  0.1370  1.0000  -2.8825   0.0000   0.2622
   6.750   0.7992   0.02412   0.01344  -0.0131  0.1172  1.0000  -3.0229   0.0000   0.2600
   7.000   0.8178   0.02527   0.01453  -0.0119  0.1011  1.0000  -3.1652   0.0000   0.2579
   7.250   0.8367   0.02638   0.01566  -0.0107  0.0887  1.0000  -3.3091   0.0000   0.2559
   7.500   0.8558   0.02764   0.01700  -0.0094  0.0809  1.0000  -3.4394   0.0000   0.2538
   7.750   0.8742   0.02894   0.01838  -0.0081  0.0744  1.0000  -3.5787   0.0000   0.2519
   8.000   0.8935   0.03027   0.01983  -0.0070  0.0676  1.0000  -3.7139   0.0000   0.2501
   8.250   0.9116   0.03147   0.02105  -0.0059  0.0614  1.0000  -3.8632   0.0000   0.2486
   8.500   0.9302   0.03313   0.02279  -0.0048  0.0576  1.0000  -3.9890   0.0000   0.2470
   8.750   0.9501   0.03488   0.02479  -0.0037  0.0543  1.0000  -4.1405   0.0000   0.2454
   9.000   0.9688   0.03672   0.02682  -0.0026  0.0515  1.0000  -4.3002   0.0000   0.2440


