xflr5 v6.48

 Calculated polar for: NACA 1410

 1 1 Reynolds number fixed          Mach number fixed

 xtrf =   1.000 (top)        1.000 (bottom)
 Mach =   0.000     Re =     0.100 e 6     Ncrit =   5.000

  alpha     CL        CD       CDp       Cm    Top Xtr Bot Xtr   Cpmin    Chinge    XCp
  -9.00   -0.789800   +0.040170    0.000000    0.000000   0.000000   0.000000
  -8.75   -0.779900   +0.037420    0.000000    0.000000   0.000000   0.000000
  -8.50   -0.767200   +0.034910    0.000000    0.000000   0.000000   0.000000
  -8.25   -0.751800   +0.032990    0.000000    0.000000   0.000000   0.000000
  -8.00   -0.735500   +0.031180    0.000000    0.000000   0.000000   0.000000
  -7.75   -0.717000   +0.029970    0.000000    0.000000   0.000000   0.000000
  -7.50   -0.698100   +0.028390    0.000000    0.000000   0.000000   0.000000
  -7.25   -0.678400   +0.026810    0.000000    0.000000   0.000000   0.000000
  -7.00   -0.658000   +0.025400    0.000000    0.000000   0.000000   0.000000
  -6.75   -0.638200   +0.024030    0.000000    0.000000   0.000000   0.000000
  -6.50   -0.618200   +0.023030    0.000000    0.000000   0.000000   0.000000
  -6.25   -0.597100   +0.022290    0.000000    0.000000   0.000000   0.000000
  -6.00   -0.576700   +0.021370    0.000000    0.000000   0.000000   0.000000
  -5.75   -0.555900   +0.020570    0.000000    0.000000   0.000000   0.000000
  -5.50   -0.535000   +0.019760    0.000000    0.000000   0.000000   0.000000
  -5.25   -0.514200   +0.019030    0.000000    0.000000   0.000000   0.000000
  -5.00   -0.493100   +0.018390    0.000000    0.000000   0.000000   0.000000
  -4.75   -0.471600   +0.017770    0.000000    0.000000   0.000000   0.000000
  -4.50   -0.450000   +0.017190    0.000000    0.000000   0.000000   0.000000
  -4.25   -0.428300   +0.016630    0.000000    0.000000   0.000000   0.000000
  -4.00   -1.873332   +0.016140    0.000000    0.000000   0.000000   0.000000
  -3.75   -0.384200   +0.015640    0.000000    0.000000   0.000000   0.000000
  -3.50   -0.361900   +0.015200    0.000000    0.000000   0.000000   0.000000
  -3.25   -0.339500   +0.014790    0.000000    0.000000   0.000000   0.000000
  -3.00   -0.316900   +0.014400    0.000000    0.000000   0.000000   0.000000
  -2.75   -0.294400   +0.014050    0.000000    0.000000   0.000000   0.000000
  -2.50   -0.261400   +0.013650    0.000000    0.000000   0.000000   0.000000
  -2.25   -0.225700   +0.013300    0.000000    0.000000   0.000000   0.000000
  -2.00   -0.189200   +0.013050    0.000000    0.000000   0.000000   0.000000
  -1.75   -0.156200   +0.012860    0.000000    0.000000   0.000000   0.000000
  -1.50   -0.118400   +0.012790    0.000000    0.000000   0.000000   0.000000
  -1.25   -0.080600   +0.012780    0.000000    0.000000   0.000000   0.000000
  -1.00   -0.034300   +0.012800    0.000000    0.000000   0.000000   0.000000
  -0.75   +0.014900   +0.012810    0.000000    0.000000   0.000000   0.000000
  -0.50   +0.062900   +0.012790    0.000000    0.000000   0.000000   0.000000
  -0.25   +0.117400   +0.012710    0.000000    0.000000   0.000000   0.000000
  +0.00   +0.167800   +0.012620    0.000000    0.000000   0.000000   0.000000
  +0.25   +0.200200   +0.012510    0.000000    0.000000   0.000000   0.000000
  +0.50   +0.231800   +0.012410    0.000000    0.000000   0.000000   0.000000
  +0.75   +0.259500   +0.012340    0.000000    0.000000   0.000000   0.000000
  +1.00   +0.286000   +0.012310    0.000000    0.000000   0.000000   0.000000
  +1.25   +0.312200   +0.012290    0.000000    0.000000   0.000000   0.000000
  +1.50   +0.337900   +0.012300    0.000000    0.000000   0.000000   0.000000
  +1.75   +0.363300   +0.012330    0.000000    0.000000   0.000000   0.000000
  +2.00   +0.388300   +0.012400    0.000000    0.000000   0.000000   0.000000
  +2.25   +0.412900   +0.012500    0.000000    0.000000   0.000000   0.000000
  +2.50   +0.437200   +0.012630    0.000000    0.000000   0.000000   0.000000
  +2.75   +0.461000   +0.012790    0.000000    0.000000   0.000000   0.000000
  +3.00   +0.484700   +0.012980    0.000000    0.000000   0.000000   0.000000
  +3.25   +0.508300   +0.013200    0.000000    0.000000   0.000000   0.000000
  +3.50   +0.531600   +0.013450    0.000000    0.000000   0.000000   0.000000
  +3.75   +0.554800   +0.013720    0.000000    0.000000   0.000000   0.000000
  +4.00   +0.577800   +0.014010    0.000000    0.000000   0.000000   0.000000
  +4.25   +0.600600   +0.014340    0.000000    0.000000   0.000000   0.000000
  +4.50   +0.623000   +0.014720    0.000000    0.000000   0.000000   0.000000
  +4.75   +0.645300   +0.015130    0.000000    0.000000   0.000000   0.000000
  +5.00   +0.666800   +0.015630    0.000000    0.000000   0.000000   0.000000
  +5.25   +0.688000   +0.016220    0.000000    0.000000   0.000000   0.000000
  +5.50   +0.708900   +0.016900    0.000000    0.000000   0.000000   0.000000
  +5.75   +0.729600   +0.017680    0.000000    0.000000   0.000000   0.000000
  +6.00   +0.749900   +0.018530    0.000000    0.000000   0.000000   0.000000
  +6.25   +0.770600   +0.019380    0.000000    0.000000   0.000000   0.000000
  +6.50   +0.790600   +0.020310    0.000000    0.000000   0.000000   0.000000
  +6.75   +0.810800   +0.021200    0.000000    0.000000   0.000000   0.000000
  +7.00   +0.831300   +0.022080    0.000000    0.000000   0.000000   0.000000
  +7.25   +0.850300   +0.023130    0.000000    0.000000   0.000000   0.000000
  +7.50   +0.870500   +0.024010    0.000000    0.000000   0.000000   0.000000
  +7.75   +0.889300   +0.025070    0.000000    0.000000   0.000000   0.000000
  +8.00   +0.908700   +0.026130    0.000000    0.000000   0.000000   0.000000
  +8.25   +0.926900   +0.027330    0.000000    0.000000   0.000000   0.000000
  +8.50   +0.944600   +0.028830    0.000000    0.000000   0.000000   0.000000
  +8.75   +0.964100   +0.030260    0.000000    0.000000   0.000000   0.000000
  +9.00   +0.982700   +0.031590    0.000000    0.000000   0.000000   0.000000
