xflr5 v6.48

 Calculated polar for: NACA 1410

 1 1 Reynolds number fixed          Mach number fixed

 xtrf =   1.000 (top)        1.000 (bottom)
 Mach =   0.000     Re =     0.070 e 6     Ncrit =   5.000

  alpha     CL        CD       CDp       Cm    Top Xtr Bot Xtr   Cpmin    Chinge    XCp
  -9.00   -0.747400   +0.051580    0.000000    0.000000   0.000000   0.000000
  -8.75   -0.745600   +0.048210    0.000000    0.000000   0.000000   0.000000
  -8.50   -0.742900   +0.044450    0.000000    0.000000   0.000000   0.000000
  -8.25   -0.735800   +0.040900    0.000000    0.000000   0.000000   0.000000
  -8.00   -0.723500   +0.037780    0.000000    0.000000   0.000000   0.000000
  -7.75   -0.707300   +0.035520    0.000000    0.000000   0.000000   0.000000
  -7.50   -0.689800   +0.033600    0.000000    0.000000   0.000000   0.000000
  -7.25   -0.671200   +0.031710    0.000000    0.000000   0.000000   0.000000
  -7.00   -0.651500   +0.029880    0.000000    0.000000   0.000000   0.000000
  -6.75   -0.631800   +0.028430    0.000000    0.000000   0.000000   0.000000
  -6.50   -0.612000   +0.027450    0.000000    0.000000   0.000000   0.000000
  -6.25   -0.590600   +0.026160    0.000000    0.000000   0.000000   0.000000
  -6.00   -0.570400   +0.024830    0.000000    0.000000   0.000000   0.000000
  -5.75   -0.549600   +0.023790    0.000000    0.000000   0.000000   0.000000
  -5.50   -0.529000   +0.022870    0.000000    0.000000   0.000000   0.000000
  -5.25   -0.507800   +0.022040    0.000000    0.000000   0.000000   0.000000
  -5.00   -0.487100   +0.021160    0.000000    0.000000   0.000000   0.000000
  -4.75   -0.466100   +0.020380    0.000000    0.000000   0.000000   0.000000
  -4.50   -0.444900   +0.019650    0.000000    0.000000   0.000000   0.000000
  -4.25   -0.423700   +0.018920    0.000000    0.000000   0.000000   0.000000
  -4.00   -0.402100   +0.018290    0.000000    0.000000   0.000000   0.000000
  -3.75   -0.380400   +0.017690    0.000000    0.000000   0.000000   0.000000
  -3.50   -0.358600   +0.017120    0.000000    0.000000   0.000000   0.000000
  -3.25   -0.336400   +0.016600    0.000000    0.000000   0.000000   0.000000
  -3.00   -0.315200   +0.016140    0.000000    0.000000   0.000000   0.000000
  -2.75   -0.294500   +0.015720    0.000000    0.000000   0.000000   0.000000
  -2.50   -0.274100   +0.015390    0.000000    0.000000   0.000000   0.000000
  -2.25   -0.254000   +0.015150    0.000000    0.000000   0.000000   0.000000
  -2.00   -0.233400   +0.015010    0.000000    0.000000   0.000000   0.000000
  -1.75   -0.209600   +0.015000    0.000000    0.000000   0.000000   0.000000
  -1.50   -0.175100   +0.015100    0.000000    0.000000   0.000000   0.000000
  -1.25   -0.120100   +0.015240    0.000000    0.000000   0.000000   0.000000
  -1.00   -0.055300   +0.015340    0.000000    0.000000   0.000000   0.000000
  -0.75   -0.010800   +0.015370    0.000000    0.000000   0.000000   0.000000
  -0.50   +0.030900   +0.015390    0.000000    0.000000   0.000000   0.000000
  -0.25   +0.072900   +0.015400    0.000000    0.000000   0.000000   0.000000
  +0.00   +0.119100   +0.015390    0.000000    0.000000   0.000000   0.000000
  +0.25   +0.155800   +0.015360    0.000000    0.000000   0.000000   0.000000
  +0.50   +0.191500   +0.015320    0.000000    0.000000   0.000000   0.000000
  +0.75   +0.227600   +0.015270    0.000000    0.000000   0.000000   0.000000
  +1.00   +0.263700   +0.015200    0.000000    0.000000   0.000000   0.000000
  +1.25   +0.292600   +0.015180    0.000000    0.000000   0.000000   0.000000
  +1.50   +0.321300   +0.015170    0.000000    0.000000   0.000000   0.000000
  +1.75   +0.349500   +0.015170    0.000000    0.000000   0.000000   0.000000
  +2.00   +0.377000   +0.015180    0.000000    0.000000   0.000000   0.000000
  +2.25   +0.403700   +0.015210    0.000000    0.000000   0.000000   0.000000
  +2.50   +0.429700   +0.015270    0.000000    0.000000   0.000000   0.000000
  +2.75   +0.454600   +0.015380    0.000000    0.000000   0.000000   0.000000
  +3.00   +0.479100   +0.015530    0.000000    0.000000   0.000000   0.000000
  +3.25   +0.503400   +0.015700    0.000000    0.000000   0.000000   0.000000
  +3.50   +0.527400   +0.015900    0.000000    0.000000   0.000000   0.000000
  +3.75   +0.551200   +0.016140    0.000000    0.000000   0.000000   0.000000
  +4.00   +0.574500   +0.016410    0.000000    0.000000   0.000000   0.000000
  +4.25   +0.597300   +0.016720    0.000000    0.000000   0.000000   0.000000
  +4.50   +0.619600   +0.017050    0.000000    0.000000   0.000000   0.000000
  +4.75   +0.641500   +0.017450    0.000000    0.000000   0.000000   0.000000
  +5.00   +0.663000   +0.017890    0.000000    0.000000   0.000000   0.000000
  +5.25   +0.683700   +0.018420    0.000000    0.000000   0.000000   0.000000
  +5.50   +0.703900   +0.019060    0.000000    0.000000   0.000000   0.000000
  +5.75   +0.723600   +0.019840    0.000000    0.000000   0.000000   0.000000
  +6.00   +0.742800   +0.020780    0.000000    0.000000   0.000000   0.000000
  +6.25   +0.761800   +0.021830    0.000000    0.000000   0.000000   0.000000
  +6.50   +0.780200   +0.022980    0.000000    0.000000   0.000000   0.000000
  +6.75   +0.799200   +0.024120    0.000000    0.000000   0.000000   0.000000
  +7.00   +0.817800   +0.025270    0.000000    0.000000   0.000000   0.000000
  +7.25   +0.836700   +0.026380    0.000000    0.000000   0.000000   0.000000
  +7.50   +0.855800   +0.027640    0.000000    0.000000   0.000000   0.000000
  +7.75   +0.874200   +0.028940    0.000000    0.000000   0.000000   0.000000
  +8.00   +0.893500   +0.030270    0.000000    0.000000   0.000000   0.000000
  +8.25   +0.911600   +0.031470    0.000000    0.000000   0.000000   0.000000
  +8.50   +0.930200   +0.033130    0.000000    0.000000   0.000000   0.000000
  +8.75   +0.950100   +0.034880    0.000000    0.000000   0.000000   0.000000
  +9.00   +0.968800   +0.036720    0.000000    0.000000   0.000000   0.000000
