xflr5 v6.48

 Calculated polar for: NACA 1410

 1 1 Reynolds number fixed          Mach number fixed

 xtrf =   1.000 (top)        1.000 (bottom)
 Mach =   0.000     Re =     0.050 e 6     Ncrit =   5.000

  alpha     CL        CD       CDp       Cm    Top Xtr Bot Xtr   Cpmin    Chinge    XCp
  -9.00   -0.706800   +0.062600    0.000000    0.000000   0.000000   0.000000
  -8.75   -0.715500   +0.057590    0.000000    0.000000   0.000000   0.000000
  -8.50   -0.718700   +0.052880    0.000000    0.000000   0.000000   0.000000
  -8.25   -0.716900   +0.048540    0.000000    0.000000   0.000000   0.000000
  -8.00   -0.709500   +0.044720    0.000000    0.000000   0.000000   0.000000
  -7.75   -0.695300   +0.042080    0.000000    0.000000   0.000000   0.000000
  -7.50   -0.679700   +0.039760    0.000000    0.000000   0.000000   0.000000
  -7.25   -0.663300   +0.037790    0.000000    0.000000   0.000000   0.000000
  -7.00   -0.646300   +0.035610    0.000000    0.000000   0.000000   0.000000
  -6.75   -0.627100   +0.033960    0.000000    0.000000   0.000000   0.000000
  -6.50   -0.606500   +0.032020    0.000000    0.000000   0.000000   0.000000
  -6.25   -0.584800   +0.030180    0.000000    0.000000   0.000000   0.000000
  -6.00   -0.564700   +0.028950    0.000000    0.000000   0.000000   0.000000
  -5.75   -0.543700   +0.027720    0.000000    0.000000   0.000000   0.000000
  -5.50   -0.522100   +0.026520    0.000000    0.000000   0.000000   0.000000
  -5.25   -0.500900   +0.025360    0.000000    0.000000   0.000000   0.000000
  -5.00   -0.479800   +0.024390    0.000000    0.000000   0.000000   0.000000
  -4.75   -0.458200   +0.023380    0.000000    0.000000   0.000000   0.000000
  -4.50   -0.436300   +0.022490    0.000000    0.000000   0.000000   0.000000
  -4.25   -0.415000   +0.021580    0.000000    0.000000   0.000000   0.000000
  -4.00   -0.394300   +0.020770    0.000000    0.000000   0.000000   0.000000
  -3.75   -0.374300   +0.020040    0.000000    0.000000   0.000000   0.000000
  -3.50   -0.355000   +0.019350    0.000000    0.000000   0.000000   0.000000
  -3.25   -0.335900   +0.018750    0.000000    0.000000   0.000000   0.000000
  -3.00   -0.317300   +0.018240    0.000000    0.000000   0.000000   0.000000
  -2.75   -0.298800   +0.017850    0.000000    0.000000   0.000000   0.000000
  -2.50   -0.279500   +0.017590    0.000000    0.000000   0.000000   0.000000
  -2.25   -0.256200   +0.017480    0.000000    0.000000   0.000000   0.000000
  -2.00   -0.220600   +0.017520    0.000000    0.000000   0.000000   0.000000
  -1.75   -0.618037   +0.017630    0.000000    0.000000   0.000000   0.000000
  -1.50   -0.103700   +0.017660    0.000000    0.000000   0.000000   0.000000
  -1.25   -0.079300   +0.017580    0.000000    0.000000   0.000000   0.000000
  -1.00   -0.073100   +0.017570    0.000000    0.000000   0.000000   0.000000
  -0.75   -0.063900   +0.017640    0.000000    0.000000   0.000000   0.000000
  -0.50   -0.052200   +0.017790    0.000000    0.000000   0.000000   0.000000
  -0.25   -0.010900   +0.018010    0.000000    0.000000   0.000000   0.000000
  +0.00   +0.033900   +0.018230    0.000000    0.000000   0.000000   0.000000
  +0.25   +0.079100   +0.018420    0.000000    0.000000   0.000000   0.000000
  +0.50   +0.123900   +0.018580    0.000000    0.000000   0.000000   0.000000
  +0.75   +0.165300   +0.018690    0.000000    0.000000   0.000000   0.000000
  +1.00   +0.206800   +0.018770    0.000000    0.000000   0.000000   0.000000
  +1.25   +0.248200   +0.018810    0.000000    0.000000   0.000000   0.000000
  +1.50   +0.287600   +0.018810    0.000000    0.000000   0.000000   0.000000
  +1.75   +0.320000   +0.018850    0.000000    0.000000   0.000000   0.000000
  +2.00   +0.351800   +0.018880    0.000000    0.000000   0.000000   0.000000
  +2.25   +0.383100   +0.018900    0.000000    0.000000   0.000000   0.000000
  +2.50   +0.413700   +0.018910    0.000000    0.000000   0.000000   0.000000
  +2.75   +0.443200   +0.018930    0.000000    0.000000   0.000000   0.000000
  +3.00   +0.470100   +0.019000    0.000000    0.000000   0.000000   0.000000
  +3.25   +0.495100   +0.019120    0.000000    0.000000   0.000000   0.000000
  +3.50   +0.519800   +0.019260    0.000000    0.000000   0.000000   0.000000
  +3.75   +0.544000   +0.019440    0.000000    0.000000   0.000000   0.000000
  +4.00   +0.567700   +0.019640    0.000000    0.000000   0.000000   0.000000
  +4.25   +0.591300   +0.019870    0.000000    0.000000   0.000000   0.000000
  +4.50   +0.613600   +0.020170    0.000000    0.000000   0.000000   0.000000
  +4.75   +0.635200   +0.020510    0.000000    0.000000   0.000000   0.000000
  +5.00   +0.656200   +0.020900    0.000000    0.000000   0.000000   0.000000
  +5.25   +0.676300   +0.021360    0.000000    0.000000   0.000000   0.000000
  +5.50   +0.695500   +0.021920    0.000000    0.000000   0.000000   0.000000
  +5.75   +0.713800   +0.022610    0.000000    0.000000   0.000000   0.000000
  +6.00   +0.731300   +0.023500    0.000000    0.000000   0.000000   0.000000
  +6.25   +0.748400   +0.024630    0.000000    0.000000   0.000000   0.000000
  +6.50   +0.765700   +0.025920    0.000000    0.000000   0.000000   0.000000
  +6.75   +0.782500   +0.027350    0.000000    0.000000   0.000000   0.000000
  +7.00   +0.800700   +0.028730    0.000000    0.000000   0.000000   0.000000
  +7.25   +0.818700   +0.030230    0.000000    0.000000   0.000000   0.000000
  +7.50   +0.837900   +0.031580    0.000000    0.000000   0.000000   0.000000
  +7.75   +0.857100   +0.033060    0.000000    0.000000   0.000000   0.000000
  +8.00   +0.876500   +0.034740    0.000000    0.000000   0.000000   0.000000
  +8.25   +0.898800   +0.036640    0.000000    0.000000   0.000000   0.000000
  +8.50   +0.917100   +0.038280    0.000000    0.000000   0.000000   0.000000
  +8.75   +0.934300   +0.040190    0.000000    0.000000   0.000000   0.000000
  +9.00   +0.951200   +0.042310    0.000000    0.000000   0.000000   0.000000
