xflr5 v6.48

 Calculated polar for: NACA 1410

 1 1 Reynolds number fixed          Mach number fixed

 xtrf =   1.000 (top)        1.000 (bottom)
 Mach =   0.000     Re =     0.090 e 6     Ncrit =   5.000

  alpha     CL        CD       CDp       Cm    Top Xtr Bot Xtr   Cpmin    Chinge    XCp
  -9.00   -0.779800   +0.042960    0.000000    0.000000   0.000000   0.000000
  -8.75   -0.773800   +0.039500    0.000000    0.000000   0.000000   0.000000
  -8.50   -0.763000   +0.036840    0.000000    0.000000   0.000000   0.000000
  -8.25   -0.748200   +0.035020    0.000000    0.000000   0.000000   0.000000
  -8.00   -0.730900   +0.033770    0.000000    0.000000   0.000000   0.000000
  -7.75   -0.713800   +0.031850    0.000000    0.000000   0.000000   0.000000
  -7.50   -0.695500   +0.029830    0.000000    0.000000   0.000000   0.000000
  -7.25   -0.675800   +0.028070    0.000000    0.000000   0.000000   0.000000
  -7.00   -0.656400   +0.026410    0.000000    0.000000   0.000000   0.000000
  -6.75   -0.636500   +0.025240    0.000000    0.000000   0.000000   0.000000
  -6.50   -0.615800   +0.024260    0.000000    0.000000   0.000000   0.000000
  -6.25   -0.595300   +0.023280    0.000000    0.000000   0.000000   0.000000
  -6.00   -0.574800   +0.022410    0.000000    0.000000   0.000000   0.000000
  -5.75   -0.553600   +0.021500    0.000000    0.000000   0.000000   0.000000
  -5.50   -0.533500   +0.020550    0.000000    0.000000   0.000000   0.000000
  -5.25   -0.512100   +0.019890    0.000000    0.000000   0.000000   0.000000
  -5.00   -0.491300   +0.019190    0.000000    0.000000   0.000000   0.000000
  -4.75   -0.470200   +0.018470    0.000000    0.000000   0.000000   0.000000
  -4.50   -0.448800   +0.017850    0.000000    0.000000   0.000000   0.000000
  -4.25   -0.427000   +0.017280    0.000000    0.000000   0.000000   0.000000
  -4.00   -0.405400   +0.016700    0.000000    0.000000   0.000000   0.000000
  -3.75   -0.383400   +0.016200    0.000000    0.000000   0.000000   0.000000
  -3.50   -0.361300   +0.015720    0.000000    0.000000   0.000000   0.000000
  -3.25   -0.339100   +0.015280    0.000000    0.000000   0.000000   0.000000
  -3.00   -0.316800   +0.014870    0.000000    0.000000   0.000000   0.000000
  -2.75   -0.294400   +0.014490    0.000000    0.000000   0.000000   0.000000
  -2.50   -0.272200   +0.014140    0.000000    0.000000   0.000000   0.000000
  -2.25   -0.245000   +0.013860    0.000000    0.000000   0.000000   0.000000
  -2.00   -0.209300   +0.013620    0.000000    0.000000   0.000000   0.000000
  -1.75   -0.173400   +0.013490    0.000000    0.000000   0.000000   0.000000
  -1.50   -0.137000   +0.013460    0.000000    0.000000   0.000000   0.000000
  -1.25   -0.091700   +0.013520    0.000000    0.000000   0.000000   0.000000
  -1.00   -0.040700   +0.013580    0.000000    0.000000   0.000000   0.000000
  -0.75   +0.011200   +0.013600    0.000000    0.000000   0.000000   0.000000
  -0.50   +0.069100   +0.013560    0.000000    0.000000   0.000000   0.000000
  -0.25   +0.120300   +0.013470    0.000000    0.000000   0.000000   0.000000
  +0.00   +0.159200   +0.013360    0.000000    0.000000   0.000000   0.000000
  +0.25   +0.190900   +0.013280    0.000000    0.000000   0.000000   0.000000
  +0.50   +0.221400   +0.013200    0.000000    0.000000   0.000000   0.000000
  +0.75   +0.251500   +0.013140    0.000000    0.000000   0.000000   0.000000
  +1.00   +0.281000   +0.013080    0.000000    0.000000   0.000000   0.000000
  +1.25   +0.309500   +0.013030    0.000000    0.000000   0.000000   0.000000
  +1.50   +0.335300   +0.013030    0.000000    0.000000   0.000000   0.000000
  +1.75   +0.360600   +0.013060    0.000000    0.000000   0.000000   0.000000
  +2.00   +1.771450   +0.013120    0.000000    0.000000   0.000000   0.000000
  +2.25   +0.410600   +0.013200    0.000000    0.000000   0.000000   0.000000
  +2.50   +0.435200   +0.013320    0.000000    0.000000   0.000000   0.000000
  +2.75   +0.459600   +0.013460    0.000000    0.000000   0.000000   0.000000
  +3.00   +0.483600   +0.013640    0.000000    0.000000   0.000000   0.000000
  +3.25   +0.507400   +0.013840    0.000000    0.000000   0.000000   0.000000
  +3.50   +0.531000   +0.014070    0.000000    0.000000   0.000000   0.000000
  +3.75   +0.554300   +0.014330    0.000000    0.000000   0.000000   0.000000
  +4.00   +0.577300   +0.014630    0.000000    0.000000   0.000000   0.000000
  +4.25   +0.599900   +0.014960    0.000000    0.000000   0.000000   0.000000
  +4.50   +0.622400   +0.015330    0.000000    0.000000   0.000000   0.000000
  +4.75   +0.644600   +0.015730    0.000000    0.000000   0.000000   0.000000
  +5.00   +0.666300   +0.016210    0.000000    0.000000   0.000000   0.000000
  +5.25   +0.687300   +0.016780    0.000000    0.000000   0.000000   0.000000
  +5.50   +0.708000   +0.017460    0.000000    0.000000   0.000000   0.000000
  +5.75   +0.728400   +0.018250    0.000000    0.000000   0.000000   0.000000
  +6.00   +0.748400   +0.019130    0.000000    0.000000   0.000000   0.000000
  +6.25   +0.768300   +0.020070    0.000000    0.000000   0.000000   0.000000
  +6.50   +0.788600   +0.021000    0.000000    0.000000   0.000000   0.000000
  +6.75   +0.808500   +0.021950    0.000000    0.000000   0.000000   0.000000
  +7.00   +0.827800   +0.022970    0.000000    0.000000   0.000000   0.000000
  +7.25   +0.847100   +0.023990    0.000000    0.000000   0.000000   0.000000
  +7.50   +0.866100   +0.025090    0.000000    0.000000   0.000000   0.000000
  +7.75   +0.885200   +0.026100    0.000000    0.000000   0.000000   0.000000
  +8.00   +0.904000   +0.027270    0.000000    0.000000   0.000000   0.000000
  +8.25   +0.923000   +0.028500    0.000000    0.000000   0.000000   0.000000
  +8.50   +0.941100   +0.029830    0.000000    0.000000   0.000000   0.000000
  +8.75   +0.959100   +0.031580    0.000000    0.000000   0.000000   0.000000
  +9.00   +0.978600   +0.033220    0.000000    0.000000   0.000000   0.000000
