xflr5 v6.48

 Calculated polar for: NACA 1410

 1 1 Reynolds number fixed          Mach number fixed         

 xtrf =   1.000 (top)        1.000 (bottom)
 Mach =   0.000     Re =     0.100 e 6     Ncrit =   5.000

  alpha     CL        CD       CDp       Cm    Top Xtr Bot Xtr   Cpmin    Chinge    XCp    
 ------- -------- --------- --------- -------- ------- ------- -------- --------- ---------
  -9.000  -0.7898   0.04017   0.03301  -0.0357  1.0000  0.0307  -4.7573   0.0000   0.1970
  -8.750  -0.7799   0.03742   0.02989  -0.0344  1.0000  0.0318  -4.6683   0.0000   0.1983
  -8.500  -0.7672   0.03491   0.02700  -0.0330  1.0000  0.0331  -4.5610   0.0000   0.1995
  -8.250  -0.7518   0.03299   0.02464  -0.0317  1.0000  0.0355  -4.4237   0.0000   0.2006
  -8.000  -0.7355   0.03118   0.02264  -0.0306  1.0000  0.0378  -4.2760   0.0000   0.2013
  -7.750  -0.7170   0.02997   0.02136  -0.0296  1.0000  0.0399  -4.1164   0.0000   0.2019
  -7.500  -0.6981   0.02839   0.01957  -0.0284  1.0000  0.0418  -3.9979   0.0000   0.2027
  -7.250  -0.6784   0.02681   0.01777  -0.0272  1.0000  0.0439  -3.8830   0.0000   0.2035
  -7.000  -0.6580   0.02540   0.01605  -0.0259  1.0000  0.0462  -3.7610   0.0000   0.2043
  -6.750  -0.6382   0.02403   0.01459  -0.0247  1.0000  0.0486  -3.6276   0.0000   0.2052
  -6.500  -0.6182   0.02303   0.01358  -0.0235  1.0000  0.0517  -3.4713   0.0000   0.2060
  -6.250  -0.5971   0.02229   0.01273  -0.0225  1.0000  0.0571  -3.3103   0.0000   0.2066
  -6.000  -0.5767   0.02137   0.01179  -0.0213  1.0000  0.0623  -3.1551   0.0000   0.2074
  -5.750  -0.5559   0.02057   0.01096  -0.0202  1.0000  0.0678  -3.0018   0.0000   0.2083
  -5.500  -0.5350   0.01976   0.01006  -0.0190  1.0000  0.0736  -2.8567   0.0000   0.2093
  -5.250  -0.5142   0.01903   0.00937  -0.0179  1.0000  0.0816  -2.7017   0.0000   0.2101
  -5.000  -0.4931   0.01839   0.00869  -0.0168  1.0000  0.0930  -2.5522   0.0000   0.2109
  -4.750  -0.4716   0.01777   0.00809  -0.0158  1.0000  0.1062  -2.3983   0.0000   0.2117
  -4.500  -0.4500   0.01719   0.00756  -0.0148  1.0000  0.1221  -2.2447   0.0000   0.2124
  -4.250  -0.4283   0.01663   0.00712  -0.0140  1.0000  0.1454  -2.0899   0.0000   0.2129
  -4.000  -0.4062   0.01614   0.00674  -0.0131  1.0000  0.1743  -1.9566   0.0000   0.2133
  -3.750  -0.3842   0.01564   0.00642  -0.0124  1.0000  0.2108  -1.8318   0.0000   0.2136
  -3.500  -0.3619   0.01520   0.00617  -0.0116  1.0000  0.2540  -1.7078   0.0000   0.2137
  -3.250  -0.3395   0.01479   0.00597  -0.0109  1.0000  0.3041  -1.5856   0.0000   0.2138
  -3.000  -0.3169   0.01440   0.00575  -0.0102  1.0000  0.3590  -1.4693   0.0000   0.2138
  -2.750  -0.2944   0.01405   0.00564  -0.0095  1.0000  0.4205  -1.3499   0.0000   0.2139
  -2.500  -0.2614   0.01365   0.00559  -0.0108  0.9950  0.5005  -1.2081   0.0000   0.2049
  -2.250  -0.2257   0.01330   0.00557  -0.0124  0.9875  0.5853  -1.0823   0.0000   0.1914
  -2.000  -0.1892   0.01305   0.00561  -0.0138  0.9805  0.6672  -0.9626   0.0000   0.1730
  -1.750  -0.1562   0.01286   0.00564  -0.0143  0.9714  0.7407  -0.8523   0.0000   0.1543
  -1.500  -0.1184   0.01279   0.00574  -0.0155  0.9647  0.8080  -0.7501   0.0000   0.1143
  -1.250  -0.0806   0.01278   0.00575  -0.0168  0.9560  0.8642  -0.6544   0.0000   0.0365
  -1.000  -0.0343   0.01280   0.00576  -0.0200  0.9493  0.9089  -0.5591   0.0000  -0.3419
  -0.750   0.0149   0.01281   0.00573  -0.0240  0.9425  0.9421  -0.4716   0.0000   1.8781
  -0.500   0.0629   0.01279   0.00566  -0.0279  0.9325  0.9669  -0.3973   0.0000   0.6956
  -0.250   0.1174   0.01271   0.00553  -0.0333  0.9243  0.9845  -0.3988   0.0000   0.5334
   0.000   0.1678   0.01262   0.00541  -0.0380  0.9111  1.0000  -0.4361   0.0000   0.4756
   0.250   0.2002   0.01251   0.00525  -0.0389  0.8934  1.0000  -0.4660   0.0000   0.4430
   0.500   0.2318   0.01241   0.00509  -0.0395  0.8752  1.0000  -0.4985   0.0000   0.4188
   0.750   0.2595   0.01234   0.00498  -0.0392  0.8539  1.0000  -0.5322   0.0000   0.3995
   1.000   0.2860   0.01231   0.00489  -0.0387  0.8317  1.0000  -0.5700   0.0000   0.3835
   1.250   0.3122   0.01229   0.00482  -0.0381  0.8088  1.0000  -0.6132   0.0000   0.3699
   1.500   0.3379   0.01230   0.00477  -0.0373  0.7853  1.0000  -0.6632   0.0000   0.3582
   1.750   0.3633   0.01233   0.00478  -0.0365  0.7610  1.0000  -0.7204   0.0000   0.3480
   2.000   0.3883   0.01240   0.00477  -0.0356  0.7357  1.0000  -0.7861   0.0000   0.3390
   2.250   0.4129   0.01250   0.00478  -0.0346  0.7098  1.0000  -0.8579   0.0000   0.3309
   2.500   0.4372   0.01263   0.00482  -0.0335  0.6831  1.0000  -0.9360   0.0000   0.3237
   2.750   0.4610   0.01279   0.00489  -0.0324  0.6554  1.0000  -1.0187   0.0000   0.3172
   3.000   0.4847   0.01298   0.00500  -0.0313  0.6269  1.0000  -1.1133   0.0000   0.3113
   3.250   0.5083   0.01320   0.00512  -0.0302  0.5975  1.0000  -1.2097   0.0000   0.3060
   3.500   0.5316   0.01345   0.00526  -0.0291  0.5671  1.0000  -1.3098   0.0000   0.3011
   3.750   0.5548   0.01372   0.00551  -0.0280  0.5352  1.0000  -1.4235   0.0000   0.2966
   4.000   0.5778   0.01401   0.00571  -0.0269  0.5013  1.0000  -1.5437   0.0000   0.2925
   4.250   0.6006   0.01434   0.00594  -0.0258  0.4651  1.0000  -1.6665   0.0000   0.2887
   4.500   0.6230   0.01472   0.00618  -0.0247  0.4266  1.0000  -1.7910   0.0000   0.2852
   4.750   0.6453   0.01513   0.00646  -0.0236  0.3849  1.0000  -1.9174   0.0000   0.2819
   5.000   0.6668   0.01563   0.00677  -0.0224  0.3386  1.0000  -2.0494   0.0000   0.2788
   5.250   0.6880   0.01622   0.00715  -0.0214  0.2896  1.0000  -2.2032   0.0000   0.2760
   5.500   0.7089   0.01690   0.00761  -0.0203  0.2390  1.0000  -2.3580   0.0000   0.2734
   5.750   0.7296   0.01768   0.00823  -0.0193  0.1923  1.0000  -2.5053   0.0000   0.2709
   6.000   0.7499   0.01853   0.00887  -0.0183  0.1528  1.0000  -2.6600   0.0000   0.2687
   6.250   0.7706   0.01938   0.00960  -0.0173  0.1245  1.0000  -2.8158   0.0000   0.2665
   6.500   0.7906   0.02031   0.01039  -0.0162  0.1033  1.0000  -2.9710   0.0000   0.2644
   6.750   0.8108   0.02120   0.01123  -0.0152  0.0878  1.0000  -3.1276   0.0000   0.2623
   7.000   0.8313   0.02208   0.01217  -0.0141  0.0778  1.0000  -3.2798   0.0000   0.2603
   7.250   0.8503   0.02313   0.01320  -0.0129  0.0702  1.0000  -3.4275   0.0000   0.2582
   7.500   0.8705   0.02401   0.01415  -0.0118  0.0625  1.0000  -3.5859   0.0000   0.2564
   7.750   0.8893   0.02507   0.01530  -0.0107  0.0564  1.0000  -3.7434   0.0000   0.2546
   8.000   0.9087   0.02613   0.01646  -0.0095  0.0520  1.0000  -3.8903   0.0000   0.2527
   8.250   0.9269   0.02733   0.01768  -0.0083  0.0487  1.0000  -4.0376   0.0000   0.2510
   8.500   0.9446   0.02883   0.01924  -0.0070  0.0462  1.0000  -4.1830   0.0000   0.2492
   8.750   0.9641   0.03026   0.02087  -0.0058  0.0437  1.0000  -4.3577   0.0000   0.2475
   9.000   0.9827   0.03159   0.02235  -0.0047  0.0408  1.0000  -4.5442   0.0000   0.2460


