xflr5 v6.48

 Calculated polar for: NACA 1410

 1 1 Reynolds number fixed          Mach number fixed         

 xtrf =   1.000 (top)        1.000 (bottom)
 Mach =   0.000     Re =     0.080 e 6     Ncrit =   5.000

  alpha     CL        CD       CDp       Cm    Top Xtr Bot Xtr   Cpmin    Chinge    XCp    
 ------- -------- --------- --------- -------- ------- ------- -------- --------- ---------
  -9.000  -0.7765   0.04454   0.03688  -0.0362  1.0000  0.0358  -4.5528   0.0000   0.1957
  -8.750  -0.7689   0.04168   0.03376  -0.0351  1.0000  0.0374  -4.4581   0.0000   0.1968
  -8.500  -0.7535   0.04051   0.03258  -0.0343  1.0000  0.0396  -4.2474   0.0000   0.1972
  -8.250  -0.7395   0.03871   0.03055  -0.0332  1.0000  0.0423  -4.0956   0.0000   0.1980
  -8.000  -0.7262   0.03612   0.02752  -0.0319  1.0000  0.0443  -4.0207   0.0000   0.1992
  -7.750  -0.7106   0.03350   0.02444  -0.0305  1.0000  0.0458  -3.9769   0.0000   0.2004
  -7.500  -0.6927   0.03127   0.02181  -0.0291  1.0000  0.0474  -3.9074   0.0000   0.2014
  -7.250  -0.6741   0.02945   0.01987  -0.0281  1.0000  0.0494  -3.7763   0.0000   0.2020
  -7.000  -0.6544   0.02806   0.01839  -0.0270  1.0000  0.0520  -3.6419   0.0000   0.2026
  -6.750  -0.6340   0.02673   0.01688  -0.0258  1.0000  0.0554  -3.5131   0.0000   0.2033
  -6.500  -0.6136   0.02558   0.01554  -0.0246  1.0000  0.0606  -3.3731   0.0000   0.2039
  -6.250  -0.5935   0.02465   0.01464  -0.0236  1.0000  0.0660  -3.2141   0.0000   0.2045
  -6.000  -0.5723   0.02356   0.01339  -0.0224  1.0000  0.0712  -3.0815   0.0000   0.2054
  -5.750  -0.5521   0.02245   0.01229  -0.0211  1.0000  0.0763  -2.9413   0.0000   0.2063
  -5.500  -0.5311   0.02163   0.01141  -0.0200  1.0000  0.0842  -2.7942   0.0000   0.2071
  -5.250  -0.5105   0.02083   0.01066  -0.0189  1.0000  0.0947  -2.6433   0.0000   0.2079
  -5.000  -0.4896   0.02005   0.00980  -0.0178  1.0000  0.1066  -2.5040   0.0000   0.2088
  -4.750  -0.4683   0.01934   0.00909  -0.0167  1.0000  0.1210  -2.3572   0.0000   0.2096
  -4.500  -0.4472   0.01865   0.00852  -0.0157  1.0000  0.1418  -2.2065   0.0000   0.2103
  -4.250  -0.4258   0.01800   0.00800  -0.0147  1.0000  0.1676  -2.0574   0.0000   0.2109
  -4.000  -0.4041   0.01741   0.00756  -0.0138  1.0000  0.2018  -1.9338   0.0000   0.2113
  -3.750  -0.3822   0.01687   0.00720  -0.0130  1.0000  0.2443  -1.8119   0.0000   0.2117
  -3.500  -0.3603   0.01636   0.00690  -0.0122  1.0000  0.2944  -1.6904   0.0000   0.2120
  -3.250  -0.3383   0.01587   0.00667  -0.0114  1.0000  0.3512  -1.5705   0.0000   0.2123
  -3.000  -0.3161   0.01543   0.00642  -0.0105  1.0000  0.4146  -1.4556   0.0000   0.2127
  -2.750  -0.2942   0.01503   0.00632  -0.0095  1.0000  0.4851  -1.3384   0.0000   0.2137
  -2.500  -0.2727   0.01470   0.00628  -0.0083  1.0000  0.5599  -1.2242   0.0000   0.2159
  -2.250  -0.2517   0.01443   0.00631  -0.0067  1.0000  0.6350  -1.1252   0.0000   0.2196
  -2.000  -0.2309   0.01427   0.00639  -0.0049  1.0000  0.7095  -1.0344   0.0000   0.2251
  -1.750  -0.1972   0.01420   0.00653  -0.0054  0.9937  0.7894  -0.9209   0.0000   0.2192
  -1.500  -0.1561   0.01424   0.00666  -0.0072  0.9858  0.8620  -0.8028   0.0000   0.2001
  -1.250  -0.1049   0.01436   0.00670  -0.0114  0.9804  0.9214  -0.6867   0.0000   0.1366
  -1.000  -0.0500   0.01443   0.00668  -0.0168  0.9740  0.9629  -0.5767   0.0000  -0.0928
  -0.750   0.0103   0.01445   0.00661  -0.0235  0.9686  0.9915  -0.4759   0.0000   2.5567
  -0.500   0.0610   0.01441   0.00648  -0.0286  0.9595  1.0000  -0.3995   0.0000   0.7203
  -0.250   0.1027   0.01436   0.00636  -0.0317  0.9469  1.0000  -0.3895   0.0000   0.5587
   0.000   0.1391   0.01429   0.00625  -0.0336  0.9310  1.0000  -0.4183   0.0000   0.4910
   0.250   0.1753   0.01422   0.00613  -0.0354  0.9152  1.0000  -0.4494   0.0000   0.4507
   0.500   0.2126   0.01413   0.00600  -0.0372  0.8996  1.0000  -0.4844   0.0000   0.4234
   0.750   0.2433   0.01407   0.00592  -0.0376  0.8800  1.0000  -0.5187   0.0000   0.4028
   1.000   0.2725   0.01403   0.00585  -0.0377  0.8593  1.0000  -0.5568   0.0000   0.3862
   1.250   0.3013   0.01400   0.00579  -0.0375  0.8382  1.0000  -0.6009   0.0000   0.3724
   1.500   0.3295   0.01398   0.00574  -0.0372  0.8165  1.0000  -0.6516   0.0000   0.3605
   1.750   0.3568   0.01397   0.00574  -0.0366  0.7940  1.0000  -0.7097   0.0000   0.3501
   2.000   0.3833   0.01400   0.00571  -0.0358  0.7703  1.0000  -0.7755   0.0000   0.3408
   2.250   0.4081   0.01407   0.00574  -0.0348  0.7446  1.0000  -0.8453   0.0000   0.3325
   2.500   0.4328   0.01417   0.00579  -0.0338  0.7185  1.0000  -0.9236   0.0000   0.3251
   2.750   0.4573   0.01431   0.00587  -0.0327  0.6917  1.0000  -1.0047   0.0000   0.3184
   3.000   0.4817   0.01446   0.00597  -0.0316  0.6641  1.0000  -1.1001   0.0000   0.3124
   3.250   0.5058   0.01465   0.00609  -0.0305  0.6356  1.0000  -1.1971   0.0000   0.3069
   3.500   0.5296   0.01487   0.00624  -0.0294  0.6058  1.0000  -1.2955   0.0000   0.3018
   3.750   0.5530   0.01512   0.00649  -0.0282  0.5746  1.0000  -1.4081   0.0000   0.2971
   4.000   0.5761   0.01541   0.00668  -0.0270  0.5418  1.0000  -1.5280   0.0000   0.2928
   4.250   0.5989   0.01574   0.00689  -0.0257  0.5073  1.0000  -1.6503   0.0000   0.2887
   4.500   0.6214   0.01608   0.00716  -0.0245  0.4694  1.0000  -1.7740   0.0000   0.2851
   4.750   0.6433   0.01649   0.00745  -0.0233  0.4287  1.0000  -1.8990   0.0000   0.2816
   5.000   0.6650   0.01694   0.00777  -0.0221  0.3844  1.0000  -2.0249   0.0000   0.2784
   5.250   0.6860   0.01750   0.00814  -0.0208  0.3357  1.0000  -2.1763   0.0000   0.2753
   5.500   0.7065   0.01816   0.00859  -0.0196  0.2834  1.0000  -2.3284   0.0000   0.2725
   5.750   0.7265   0.01896   0.00923  -0.0185  0.2311  1.0000  -2.4721   0.0000   0.2699
   6.000   0.7462   0.01987   0.00990  -0.0174  0.1848  1.0000  -2.6218   0.0000   0.2676
   6.250   0.7657   0.02086   0.01069  -0.0163  0.1478  1.0000  -2.7713   0.0000   0.2653
   6.500   0.7851   0.02189   0.01159  -0.0151  0.1232  1.0000  -2.9187   0.0000   0.2631
   6.750   0.8043   0.02295   0.01255  -0.0140  0.1046  1.0000  -3.0660   0.0000   0.2610
   7.000   0.8238   0.02396   0.01354  -0.0129  0.0901  1.0000  -3.2152   0.0000   0.2589
   7.250   0.8428   0.02508   0.01470  -0.0115  0.0810  1.0000  -3.3542   0.0000   0.2568
   7.500   0.8611   0.02626   0.01588  -0.0103  0.0740  1.0000  -3.4953   0.0000   0.2548
   7.750   0.8804   0.02743   0.01723  -0.0091  0.0670  1.0000  -3.6378   0.0000   0.2529
   8.000   0.8987   0.02854   0.01833  -0.0080  0.0605  1.0000  -3.7937   0.0000   0.2512
   8.250   0.9176   0.02992   0.01982  -0.0068  0.0561  1.0000  -3.9256   0.0000   0.2495
   8.500   0.9369   0.03135   0.02141  -0.0056  0.0526  1.0000  -4.0571   0.0000   0.2478
   8.750   0.9554   0.03286   0.02299  -0.0045  0.0497  1.0000  -4.2349   0.0000   0.2463
   9.000   0.9733   0.03478   0.02490  -0.0035  0.0475  1.0000  -4.4096   0.0000   0.2449


