xflr5 v6.48

 Calculated polar for: NACA 1410

 1 1 Reynolds number fixed          Mach number fixed         

 xtrf =   1.000 (top)        1.000 (bottom)
 Mach =   0.000     Re =     0.090 e 6     Ncrit =   5.000

  alpha     CL        CD       CDp       Cm    Top Xtr Bot Xtr   Cpmin    Chinge    XCp    
 ------- -------- --------- --------- -------- ------- ------- -------- --------- ---------
  -9.000  -0.7798   0.04296   0.03576  -0.0361  1.0000  0.0331  -4.5976   0.0000   0.1959
  -8.750  -0.7738   0.03950   0.03180  -0.0347  1.0000  0.0342  -4.5640   0.0000   0.1975
  -8.500  -0.7630   0.03684   0.02856  -0.0333  1.0000  0.0361  -4.4869   0.0000   0.1990
  -8.250  -0.7482   0.03502   0.02669  -0.0323  1.0000  0.0383  -4.3037   0.0000   0.1996
  -8.000  -0.7309   0.03377   0.02534  -0.0314  1.0000  0.0407  -4.1234   0.0000   0.2001
  -7.750  -0.7138   0.03185   0.02312  -0.0301  1.0000  0.0427  -4.0284   0.0000   0.2010
  -7.500  -0.6955   0.02983   0.02077  -0.0288  1.0000  0.0445  -3.9438   0.0000   0.2020
  -7.250  -0.6758   0.02807   0.01867  -0.0275  1.0000  0.0465  -3.8453   0.0000   0.2028
  -7.000  -0.6564   0.02641   0.01686  -0.0263  1.0000  0.0487  -3.7192   0.0000   0.2036
  -6.750  -0.6365   0.02524   0.01566  -0.0252  1.0000  0.0514  -3.5706   0.0000   0.2043
  -6.500  -0.6158   0.02426   0.01456  -0.0241  1.0000  0.0557  -3.4216   0.0000   0.2050
  -6.250  -0.5953   0.02328   0.01347  -0.0230  1.0000  0.0611  -3.2714   0.0000   0.2057
  -6.000  -0.5748   0.02241   0.01261  -0.0219  1.0000  0.0664  -3.1150   0.0000   0.2064
  -5.750  -0.5536   0.02150   0.01155  -0.0206  1.0000  0.0718  -2.9757   0.0000   0.2073
  -5.500  -0.5335   0.02055   0.01066  -0.0194  1.0000  0.0778  -2.8283   0.0000   0.2083
  -5.250  -0.5121   0.01989   0.00993  -0.0183  1.0000  0.0877  -2.6767   0.0000   0.2091
  -5.000  -0.4913   0.01919   0.00921  -0.0173  1.0000  0.0997  -2.5288   0.0000   0.2099
  -4.750  -0.4702   0.01847   0.00855  -0.0162  1.0000  0.1126  -2.3792   0.0000   0.2107
  -4.500  -0.4488   0.01785   0.00800  -0.0152  1.0000  0.1310  -2.2272   0.0000   0.2114
  -4.250  -0.4270   0.01728   0.00751  -0.0143  1.0000  0.1560  -2.0749   0.0000   0.2120
  -4.000  -0.4054   0.01670   0.00711  -0.0135  1.0000  0.1863  -1.9465   0.0000   0.2124
  -3.750  -0.3834   0.01620   0.00677  -0.0127  1.0000  0.2258  -1.8231   0.0000   0.2127
  -3.500  -0.3613   0.01572   0.00650  -0.0119  1.0000  0.2724  -1.7002   0.0000   0.2130
  -3.250  -0.3391   0.01528   0.00628  -0.0111  1.0000  0.3247  -1.5791   0.0000   0.2132
  -3.000  -0.3168   0.01487   0.00605  -0.0103  1.0000  0.3841  -1.4637   0.0000   0.2134
  -2.750  -0.2944   0.01449   0.00594  -0.0095  1.0000  0.4500  -1.3450   0.0000   0.2138
  -2.500  -0.2722   0.01414   0.00591  -0.0086  1.0000  0.5222  -1.2286   0.0000   0.2148
  -2.250  -0.2450   0.01386   0.00592  -0.0084  0.9972  0.6014  -1.1164   0.0000   0.2120
  -2.000  -0.2093   0.01362   0.00598  -0.0096  0.9895  0.6862  -0.9975   0.0000   0.2002
  -1.750  -0.1734   0.01349   0.00608  -0.0106  0.9816  0.7642  -0.8808   0.0000   0.1850
  -1.500  -0.1370   0.01346   0.00617  -0.0115  0.9732  0.8322  -0.7762   0.0000   0.1619
  -1.250  -0.0917   0.01352   0.00621  -0.0143  0.9666  0.8901  -0.6692   0.0000   0.0889
  -1.000  -0.0407   0.01358   0.00622  -0.0187  0.9609  0.9332  -0.5662   0.0000  -0.2160
  -0.750   0.0112   0.01360   0.00617  -0.0234  0.9534  0.9647  -0.4752   0.0000   2.3684
  -0.500   0.0691   0.01356   0.00607  -0.0296  0.9472  0.9862  -0.3918   0.0000   0.6796
  -0.250   0.1203   0.01347   0.00593  -0.0345  0.9368  1.0000  -0.3997   0.0000   0.5369
   0.000   0.1592   0.01336   0.00577  -0.0369  0.9230  1.0000  -0.4306   0.0000   0.4808
   0.250   0.1909   0.01328   0.00564  -0.0377  0.9044  1.0000  -0.4597   0.0000   0.4462
   0.500   0.2214   0.01320   0.00553  -0.0381  0.8853  1.0000  -0.4910   0.0000   0.4208
   0.750   0.2515   0.01314   0.00542  -0.0384  0.8657  1.0000  -0.5255   0.0000   0.4010
   1.000   0.2810   0.01308   0.00532  -0.0384  0.8456  1.0000  -0.5649   0.0000   0.3849
   1.250   0.3095   0.01303   0.00522  -0.0382  0.8244  1.0000  -0.6098   0.0000   0.3712
   1.500   0.3353   0.01303   0.00518  -0.0374  0.8007  1.0000  -0.6591   0.0000   0.3593
   1.750   0.3606   0.01306   0.00520  -0.0366  0.7763  1.0000  -0.7159   0.0000   0.3489
   2.000   0.3857   0.01312   0.00520  -0.0356  0.7514  1.0000  -0.7808   0.0000   0.3397
   2.250   0.4106   0.01320   0.00522  -0.0347  0.7258  1.0000  -0.8519   0.0000   0.3316
   2.500   0.4352   0.01332   0.00527  -0.0336  0.6995  1.0000  -0.9304   0.0000   0.3243
   2.750   0.4596   0.01346   0.00534  -0.0326  0.6725  1.0000  -1.0127   0.0000   0.3178
   3.000   0.4836   0.01364   0.00544  -0.0315  0.6446  1.0000  -1.1079   0.0000   0.3118
   3.250   0.5074   0.01384   0.00556  -0.0304  0.6157  1.0000  -1.2045   0.0000   0.3064
   3.500   0.5310   0.01407   0.00571  -0.0292  0.5854  1.0000  -1.3033   0.0000   0.3014
   3.750   0.5543   0.01433   0.00595  -0.0281  0.5536  1.0000  -1.4171   0.0000   0.2969
   4.000   0.5773   0.01463   0.00615  -0.0269  0.5200  1.0000  -1.5370   0.0000   0.2926
   4.250   0.5999   0.01496   0.00636  -0.0257  0.4846  1.0000  -1.6595   0.0000   0.2887
   4.500   0.6224   0.01533   0.00661  -0.0246  0.4472  1.0000  -1.7837   0.0000   0.2851
   4.750   0.6446   0.01573   0.00690  -0.0234  0.4053  1.0000  -1.9096   0.0000   0.2818
   5.000   0.6663   0.01621   0.00722  -0.0223  0.3604  1.0000  -2.0390   0.0000   0.2786
   5.250   0.6873   0.01678   0.00759  -0.0211  0.3105  1.0000  -2.1918   0.0000   0.2757
   5.500   0.7080   0.01746   0.00804  -0.0200  0.2594  1.0000  -2.3454   0.0000   0.2730
   5.750   0.7284   0.01825   0.00868  -0.0189  0.2099  1.0000  -2.4910   0.0000   0.2705
   6.000   0.7484   0.01913   0.00933  -0.0179  0.1665  1.0000  -2.6433   0.0000   0.2682
   6.250   0.7683   0.02007   0.01009  -0.0168  0.1352  1.0000  -2.7954   0.0000   0.2659
   6.500   0.7886   0.02100   0.01094  -0.0158  0.1123  1.0000  -2.9477   0.0000   0.2638
   6.750   0.8085   0.02195   0.01182  -0.0147  0.0948  1.0000  -3.1007   0.0000   0.2617
   7.000   0.8278   0.02297   0.01280  -0.0135  0.0834  1.0000  -3.2492   0.0000   0.2596
   7.250   0.8471   0.02399   0.01386  -0.0123  0.0751  1.0000  -3.3960   0.0000   0.2576
   7.500   0.8661   0.02509   0.01501  -0.0110  0.0679  1.0000  -3.5387   0.0000   0.2556
   7.750   0.8852   0.02610   0.01609  -0.0100  0.0609  1.0000  -3.7005   0.0000   0.2539
   8.000   0.9040   0.02727   0.01736  -0.0088  0.0557  1.0000  -3.8440   0.0000   0.2520
   8.250   0.9230   0.02850   0.01869  -0.0076  0.0519  1.0000  -3.9817   0.0000   0.2502
   8.500   0.9411   0.02983   0.02005  -0.0064  0.0489  1.0000  -4.1330   0.0000   0.2486
   8.750   0.9591   0.03158   0.02184  -0.0052  0.0465  1.0000  -4.3041   0.0000   0.2470
   9.000   0.9786   0.03322   0.02375  -0.0041  0.0442  1.0000  -4.4686   0.0000   0.2454


