xflr5 v6.48

 Calculated polar for: NACA 1410

 1 1 Reynolds number fixed          Mach number fixed         

 xtrf =   1.000 (top)        1.000 (bottom)
 Mach =   0.000     Re =     0.060 e 6     Ncrit =   5.000

  alpha     CL        CD       CDp       Cm    Top Xtr Bot Xtr   Cpmin    Chinge    XCp    
 ------- -------- --------- --------- -------- ------- ------- -------- --------- ---------
  -9.000  -0.7418   0.05485   0.04719  -0.0369  1.0000  0.0481  -3.9619   0.0000   0.1929
  -8.750  -0.7349   0.05220   0.04443  -0.0362  1.0000  0.0496  -3.8607   0.0000   0.1936
  -8.500  -0.7303   0.04871   0.04064  -0.0353  1.0000  0.0505  -3.8217   0.0000   0.1947
  -8.250  -0.7233   0.04527   0.03684  -0.0342  1.0000  0.0515  -3.7768   0.0000   0.1958
  -8.000  -0.7132   0.04206   0.03323  -0.0331  1.0000  0.0529  -3.7533   0.0000   0.1970
  -7.750  -0.7006   0.03905   0.02979  -0.0318  1.0000  0.0546  -3.7230   0.0000   0.1981
  -7.500  -0.6853   0.03626   0.02653  -0.0305  1.0000  0.0567  -3.6818   0.0000   0.1991
  -7.250  -0.6676   0.03382   0.02347  -0.0291  1.0000  0.0591  -3.6251   0.0000   0.2001
  -7.000  -0.6492   0.03232   0.02206  -0.0282  1.0000  0.0631  -3.4758   0.0000   0.2004
  -6.750  -0.6298   0.03104   0.02057  -0.0271  1.0000  0.0691  -3.3445   0.0000   0.2010
  -6.500  -0.6093   0.02933   0.01861  -0.0260  1.0000  0.0739  -3.2367   0.0000   0.2016
  -6.250  -0.5888   0.02792   0.01720  -0.0249  1.0000  0.0782  -3.1041   0.0000   0.2021
  -6.000  -0.5674   0.02659   0.01570  -0.0237  1.0000  0.0841  -2.9809   0.0000   0.2028
  -5.750  -0.5469   0.02547   0.01457  -0.0225  1.0000  0.0922  -2.8408   0.0000   0.2034
  -5.500  -0.5256   0.02452   0.01350  -0.0214  1.0000  0.1034  -2.7027   0.0000   0.2041
  -5.250  -0.5050   0.02347   0.01252  -0.0202  1.0000  0.1138  -2.5665   0.0000   0.2049
  -5.000  -0.4841   0.02253   0.01151  -0.0191  1.0000  0.1278  -2.4316   0.0000   0.2056
  -4.750  -0.4631   0.02169   0.01074  -0.0180  1.0000  0.1479  -2.2885   0.0000   0.2063
  -4.500  -0.4417   0.02086   0.00998  -0.0170  1.0000  0.1720  -2.1474   0.0000   0.2069
  -4.250  -0.4205   0.02008   0.00937  -0.0161  1.0000  0.2050  -2.0116   0.0000   0.2073
  -4.000  -0.3988   0.01937   0.00884  -0.0152  1.0000  0.2470  -1.8944   0.0000   0.2075
  -3.750  -0.3770   0.01870   0.00839  -0.0144  1.0000  0.2985  -1.7755   0.0000   0.2075
  -3.500  -0.3559   0.01809   0.00804  -0.0134  1.0000  0.3586  -1.6586   0.0000   0.2082
  -3.250  -0.3355   0.01753   0.00777  -0.0121  1.0000  0.4251  -1.5446   0.0000   0.2098
  -3.000  -0.3156   0.01703   0.00752  -0.0106  1.0000  0.4989  -1.4359   0.0000   0.2126
  -2.750  -0.2959   0.01662   0.00742  -0.0087  1.0000  0.5760  -1.3249   0.0000   0.2167
  -2.500  -0.2764   0.01631   0.00739  -0.0066  1.0000  0.6543  -1.2159   0.0000   0.2225
  -2.250  -0.2566   0.01610   0.00745  -0.0042  1.0000  0.7308  -1.1222   0.0000   0.2302
  -2.000  -0.2333   0.01604   0.00754  -0.0023  1.0000  0.8069  -1.0266   0.0000   0.2367
  -1.750  -0.1992   0.01610   0.00763  -0.0026  1.0000  0.8814  -0.9136   0.0000   0.2332
  -1.500  -0.1509   0.01622   0.00765  -0.0064  1.0000  0.9454  -0.7879   0.0000   0.2039
  -1.250  -0.0922   0.01630   0.00750  -0.0129  1.0000  0.9934  -0.6629   0.0000   0.1053
  -1.000  -0.0767   0.01630   0.00739  -0.0118  1.0000  1.0000  -0.6084   0.0000   0.0915
  -0.750  -0.0506   0.01640   0.00736  -0.0126  0.9943  1.0000  -0.5468   0.0000  -0.0034
  -0.500  -0.0058   0.01653   0.00736  -0.0167  0.9821  1.0000  -0.4682   0.0000  -2.6495
  -0.250   0.0370   0.01662   0.00736  -0.0203  0.9689  1.0000  -0.4012   0.0000   0.7998
   0.000   0.0797   0.01670   0.00738  -0.0237  0.9550  1.0000  -0.3832   0.0000   0.5469
   0.250   0.1254   0.01676   0.00739  -0.0276  0.9426  1.0000  -0.4176   0.0000   0.4687
   0.500   0.1665   0.01678   0.00738  -0.0304  0.9270  1.0000  -0.4523   0.0000   0.4309
   0.750   0.2033   0.01679   0.00738  -0.0322  0.9097  1.0000  -0.4878   0.0000   0.4067
   1.000   0.2405   0.01677   0.00736  -0.0340  0.8925  1.0000  -0.5287   0.0000   0.3892
   1.250   0.2789   0.01672   0.00732  -0.0358  0.8757  1.0000  -0.5767   0.0000   0.3760
   1.500   0.3097   0.01671   0.00732  -0.0360  0.8546  1.0000  -0.6268   0.0000   0.3639
   1.750   0.3391   0.01672   0.00735  -0.0359  0.8327  1.0000  -0.6835   0.0000   0.3534
   2.000   0.3680   0.01673   0.00742  -0.0357  0.8103  1.0000  -0.7482   0.0000   0.3442
   2.250   0.3964   0.01675   0.00743  -0.0352  0.7875  1.0000  -0.8190   0.0000   0.3359
   2.500   0.4239   0.01678   0.00745  -0.0345  0.7640  1.0000  -0.9005   0.0000   0.3284
   2.750   0.4504   0.01684   0.00749  -0.0335  0.7393  1.0000  -0.9830   0.0000   0.3213
   3.000   0.4757   0.01695   0.00757  -0.0324  0.7134  1.0000  -1.0767   0.0000   0.3148
   3.250   0.5001   0.01710   0.00770  -0.0311  0.6857  1.0000  -1.1734   0.0000   0.3088
   3.500   0.5244   0.01728   0.00785  -0.0299  0.6570  1.0000  -1.2720   0.0000   0.3034
   3.750   0.5483   0.01749   0.00811  -0.0286  0.6271  1.0000  -1.3793   0.0000   0.2984
   4.000   0.5719   0.01774   0.00829  -0.0273  0.5958  1.0000  -1.4989   0.0000   0.2937
   4.250   0.5946   0.01803   0.00854  -0.0259  0.5618  1.0000  -1.6195   0.0000   0.2893
   4.500   0.6169   0.01835   0.00882  -0.0244  0.5252  1.0000  -1.7416   0.0000   0.2853
   4.750   0.6387   0.01872   0.00910  -0.0229  0.4863  1.0000  -1.8651   0.0000   0.2814
   5.000   0.6600   0.01915   0.00942  -0.0215  0.4445  1.0000  -1.9887   0.0000   0.2777
   5.250   0.6804   0.01965   0.00979  -0.0199  0.3980  1.0000  -2.1263   0.0000   0.2743
   5.500   0.7002   0.02025   0.01023  -0.0185  0.3468  1.0000  -2.2742   0.0000   0.2712
   5.750   0.7191   0.02101   0.01085  -0.0170  0.2924  1.0000  -2.4133   0.0000   0.2682
   6.000   0.7377   0.02195   0.01154  -0.0157  0.2387  1.0000  -2.5559   0.0000   0.2656
   6.250   0.7560   0.02305   0.01240  -0.0144  0.1924  1.0000  -2.6968   0.0000   0.2632
   6.500   0.7739   0.02429   0.01340  -0.0132  0.1575  1.0000  -2.8351   0.0000   0.2609
   6.750   0.7925   0.02551   0.01451  -0.0120  0.1322  1.0000  -2.9721   0.0000   0.2587
   7.000   0.8108   0.02681   0.01575  -0.0107  0.1155  1.0000  -3.1047   0.0000   0.2565
   7.250   0.8288   0.02809   0.01697  -0.0095  0.1013  1.0000  -3.2417   0.0000   0.2545
   7.500   0.8478   0.02931   0.01826  -0.0083  0.0899  1.0000  -3.3786   0.0000   0.2527
   7.750   0.8671   0.03080   0.01982  -0.0070  0.0830  1.0000  -3.5027   0.0000   0.2507
   8.000   0.8869   0.03226   0.02146  -0.0059  0.0766  1.0000  -3.6335   0.0000   0.2490
   8.250   0.9054   0.03383   0.02305  -0.0048  0.0703  1.0000  -3.7669   0.0000   0.2474
   8.500   0.9239   0.03522   0.02465  -0.0037  0.0638  1.0000  -3.8973   0.0000   0.2459
   8.750   0.9420   0.03694   0.02635  -0.0028  0.0601  1.0000  -4.0560   0.0000   0.2445
   9.000   0.9613   0.03918   0.02884  -0.0017  0.0574  1.0000  -4.1991   0.0000   0.2431


