xflr5 v6.48

 Calculated polar for: NACA 1410

 1 1 Reynolds number fixed          Mach number fixed         

 xtrf =   1.000 (top)        1.000 (bottom)
 Mach =   0.000     Re =     0.050 e 6     Ncrit =   5.000

  alpha     CL        CD       CDp       Cm    Top Xtr Bot Xtr   Cpmin    Chinge    XCp    
 ------- -------- --------- --------- -------- ------- ------- -------- --------- ---------
  -9.000  -0.7068   0.06260   0.05483  -0.0357  1.0000  0.0569  -3.5283   0.0000   0.1923
  -8.750  -0.7155   0.05759   0.04949  -0.0358  1.0000  0.0571  -3.6025   0.0000   0.1930
  -8.500  -0.7187   0.05288   0.04435  -0.0353  1.0000  0.0576  -3.6498   0.0000   0.1940
  -8.250  -0.7169   0.04854   0.03948  -0.0343  1.0000  0.0584  -3.6870   0.0000   0.1953
  -8.000  -0.7095   0.04472   0.03514  -0.0332  1.0000  0.0595  -3.7052   0.0000   0.1966
  -7.750  -0.6953   0.04208   0.03236  -0.0322  1.0000  0.0612  -3.6222   0.0000   0.1972
  -7.500  -0.6797   0.03976   0.02975  -0.0312  1.0000  0.0636  -3.5348   0.0000   0.1979
  -7.250  -0.6633   0.03779   0.02747  -0.0301  1.0000  0.0685  -3.4412   0.0000   0.1985
  -7.000  -0.6463   0.03561   0.02488  -0.0289  1.0000  0.0739  -3.3614   0.0000   0.1993
  -6.750  -0.6271   0.03396   0.02319  -0.0279  1.0000  0.0783  -3.2358   0.0000   0.1997
  -6.500  -0.6065   0.03202   0.02096  -0.0267  1.0000  0.0827  -3.1411   0.0000   0.2002
  -6.250  -0.5848   0.03018   0.01880  -0.0256  1.0000  0.0878  -3.0433   0.0000   0.2007
  -6.000  -0.5647   0.02895   0.01764  -0.0245  1.0000  0.0956  -2.9007   0.0000   0.2011
  -5.750  -0.5437   0.02772   0.01629  -0.0235  1.0000  0.1061  -2.7701   0.0000   0.2015
  -5.500  -0.5221   0.02652   0.01501  -0.0223  1.0000  0.1163  -2.6411   0.0000   0.2021
  -5.250  -0.5009   0.02536   0.01378  -0.0212  1.0000  0.1284  -2.5147   0.0000   0.2027
  -5.000  -0.4798   0.02439   0.01283  -0.0201  1.0000  0.1468  -2.3760   0.0000   0.2031
  -4.750  -0.4582   0.02338   0.01187  -0.0191  1.0000  0.1676  -2.2402   0.0000   0.2035
  -4.500  -0.4363   0.02249   0.01104  -0.0182  1.0000  0.1981  -2.1009   0.0000   0.2036
  -4.250  -0.4150   0.02158   0.01035  -0.0174  1.0000  0.2349  -1.9767   0.0000   0.2036
  -4.000  -0.3943   0.02077   0.00976  -0.0164  1.0000  0.2820  -1.8643   0.0000   0.2041
  -3.750  -0.3743   0.02004   0.00927  -0.0151  1.0000  0.3394  -1.7522   0.0000   0.2053
  -3.500  -0.3550   0.01935   0.00890  -0.0137  1.0000  0.4036  -1.6409   0.0000   0.2073
  -3.250  -0.3359   0.01875   0.00864  -0.0120  1.0000  0.4770  -1.5312   0.0000   0.2103
  -3.000  -0.3173   0.01824   0.00839  -0.0098  1.0000  0.5550  -1.4259   0.0000   0.2151
  -2.750  -0.2988   0.01785   0.00831  -0.0074  1.0000  0.6348  -1.3178   0.0000   0.2216
  -2.500  -0.2795   0.01759   0.00830  -0.0047  1.0000  0.7148  -1.2095   0.0000   0.2295
  -2.250  -0.2562   0.01748   0.00835  -0.0026  1.0000  0.7940  -1.1115   0.0000   0.2364
  -2.000  -0.2206   0.01752   0.00840  -0.0029  1.0000  0.8710  -0.9936   0.0000   0.2332
  -1.750  -0.1679   0.01763   0.00836  -0.0072  1.0000  0.9372  -0.8490   0.0000   0.2032
  -1.500  -0.1037   0.01766   0.00810  -0.0145  1.0000  0.9873  -0.7124   0.0000   0.1045
  -1.250  -0.0793   0.01758   0.00787  -0.0152  1.0000  1.0000  -0.6416   0.0000   0.0532
  -1.000  -0.0731   0.01757   0.00775  -0.0123  1.0000  1.0000  -0.6024   0.0000   0.0765
  -0.750  -0.0639   0.01764   0.00770  -0.0099  1.0000  1.0000  -0.5620   0.0000   0.0903
  -0.500  -0.0522   0.01779   0.00774  -0.0080  1.0000  1.0000  -0.5186   0.0000   0.0929
  -0.250  -0.0109   0.01801   0.00785  -0.0116  0.9887  1.0000  -0.4488   0.0000  -0.8208
   0.000   0.0339   0.01823   0.00798  -0.0157  0.9750  1.0000  -0.3833   0.0000   0.7118
   0.250   0.0791   0.01842   0.00812  -0.0197  0.9610  1.0000  -0.3896   0.0000   0.4974
   0.500   0.1239   0.01858   0.00824  -0.0235  0.9461  1.0000  -0.4246   0.0000   0.4376
   0.750   0.1653   0.01869   0.00833  -0.0265  0.9294  1.0000  -0.4608   0.0000   0.4080
   1.000   0.2068   0.01877   0.00843  -0.0293  0.9127  1.0000  -0.5015   0.0000   0.3895
   1.250   0.2482   0.01881   0.00849  -0.0319  0.8961  1.0000  -0.5483   0.0000   0.3762
   1.500   0.2876   0.01881   0.00853  -0.0339  0.8781  1.0000  -0.6017   0.0000   0.3654
   1.750   0.3200   0.01885   0.00861  -0.0345  0.8568  1.0000  -0.6572   0.0000   0.3553
   2.000   0.3518   0.01888   0.00874  -0.0349  0.8353  1.0000  -0.7213   0.0000   0.3464
   2.250   0.3831   0.01890   0.00880  -0.0350  0.8134  1.0000  -0.7951   0.0000   0.3385
   2.500   0.4137   0.01891   0.00884  -0.0349  0.7911  1.0000  -0.8769   0.0000   0.3313
   2.750   0.4432   0.01893   0.00887  -0.0344  0.7679  1.0000  -0.9635   0.0000   0.3244
   3.000   0.4701   0.01900   0.00896  -0.0334  0.7427  1.0000  -1.0558   0.0000   0.3178
   3.250   0.4951   0.01912   0.00910  -0.0322  0.7160  1.0000  -1.1530   0.0000   0.3116
   3.500   0.5198   0.01926   0.00925  -0.0309  0.6883  1.0000  -1.2516   0.0000   0.3058
   3.750   0.5440   0.01944   0.00952  -0.0294  0.6594  1.0000  -1.3546   0.0000   0.3004
   4.000   0.5677   0.01964   0.00970  -0.0279  0.6290  1.0000  -1.4731   0.0000   0.2952
   4.250   0.5913   0.01987   0.00989  -0.0264  0.5968  1.0000  -1.5954   0.0000   0.2905
   4.500   0.6136   0.02017   0.01015  -0.0248  0.5616  1.0000  -1.7168   0.0000   0.2861
   4.750   0.6352   0.02051   0.01046  -0.0231  0.5231  1.0000  -1.8382   0.0000   0.2819
   5.000   0.6562   0.02090   0.01074  -0.0213  0.4824  1.0000  -1.9611   0.0000   0.2778
   5.250   0.6763   0.02136   0.01112  -0.0196  0.4372  1.0000  -2.0886   0.0000   0.2740
   5.500   0.6955   0.02192   0.01153  -0.0178  0.3884  1.0000  -2.2333   0.0000   0.2705
   5.750   0.7138   0.02261   0.01214  -0.0161  0.3348  1.0000  -2.3698   0.0000   0.2671
   6.000   0.7313   0.02350   0.01280  -0.0145  0.2789  1.0000  -2.5069   0.0000   0.2641
   6.250   0.7484   0.02463   0.01365  -0.0130  0.2276  1.0000  -2.6418   0.0000   0.2615
   6.500   0.7657   0.02592   0.01471  -0.0117  0.1865  1.0000  -2.7738   0.0000   0.2591
   6.750   0.7825   0.02735   0.01590  -0.0104  0.1570  1.0000  -2.9035   0.0000   0.2569
   7.000   0.8007   0.02873   0.01720  -0.0092  0.1341  1.0000  -3.0331   0.0000   0.2548
   7.250   0.8187   0.03023   0.01860  -0.0079  0.1195  1.0000  -3.1597   0.0000   0.2528
   7.500   0.8379   0.03158   0.02005  -0.0068  0.1054  1.0000  -3.2895   0.0000   0.2510
   7.750   0.8571   0.03306   0.02163  -0.0057  0.0943  1.0000  -3.4167   0.0000   0.2493
   8.000   0.8765   0.03474   0.02334  -0.0046  0.0877  1.0000  -3.5483   0.0000   0.2477
   8.250   0.8988   0.03664   0.02553  -0.0036  0.0817  1.0000  -3.6546   0.0000   0.2462
   8.500   0.9171   0.03828   0.02726  -0.0026  0.0752  1.0000  -3.7808   0.0000   0.2448
   8.750   0.9343   0.04019   0.02933  -0.0016  0.0693  1.0000  -3.9074   0.0000   0.2433
   9.000   0.9512   0.04231   0.03175  -0.0004  0.0648  1.0000  -4.0445   0.0000   0.2419


