xflr5 v6.48

 Calculated polar for: NACA 2421

 1 1 Reynolds number fixed          Mach number fixed

 xtrf =   1.000 (top)        1.000 (bottom)
 Mach =   0.000     Re =     0.100 e 6     Ncrit =   5.000

  alpha     CL        CD       CDp       Cm    Top Xtr Bot Xtr   Cpmin    Chinge    XCp
  -9.00   -0.745500   +0.029500    0.000000    0.000000   0.000000   0.000000
  -8.75   -0.723800   +0.028910    0.000000    0.000000   0.000000   0.000000
  -8.50   -0.696900   +0.028310    0.000000    0.000000   0.000000   0.000000
  -8.25   -0.662800   +0.027620    0.000000    0.000000   0.000000   0.000000
  -8.00   -0.637800   +0.027030    0.000000    0.000000   0.000000   0.000000
  -7.75   -0.614700   +0.026540    0.000000    0.000000   0.000000   0.000000
  -7.50   -0.582500   +0.025940    0.000000    0.000000   0.000000   0.000000
  -7.25   -0.554700   +0.025390    0.000000    0.000000   0.000000   0.000000
  -7.00   -0.534900   +0.025010    0.000000    0.000000   0.000000   0.000000
  -6.75   -0.504000   +0.024440    0.000000    0.000000   0.000000   0.000000
  -6.50   -0.472300   +0.023910    0.000000    0.000000   0.000000   0.000000
  -6.25   -0.455500   +0.023660    0.000000    0.000000   0.000000   0.000000
  -6.00   -0.426700   +0.023130    0.000000    0.000000   0.000000   0.000000
  -5.75   -0.393500   +0.022650    0.000000    0.000000   0.000000   0.000000
  -5.50   -0.377600   +0.022410    0.000000    0.000000   0.000000   0.000000
  -5.25   -0.349200   +0.022000    0.000000    0.000000   0.000000   0.000000
  -5.00   -0.316400   +0.021550    0.000000    0.000000   0.000000   0.000000
  -4.75   -0.299700   +0.021360    0.000000    0.000000   0.000000   0.000000
  -4.50   -0.271000   +0.021010    0.000000    0.000000   0.000000   0.000000
  -4.25   -0.240700   +0.020600    0.000000    0.000000   0.000000   0.000000
  -4.00   -0.221000   +0.020450    0.000000    0.000000   0.000000   0.000000
  -3.75   -0.193600   +0.020110    0.000000    0.000000   0.000000   0.000000
  -3.50   -0.163900   +0.019800    0.000000    0.000000   0.000000   0.000000
  -3.25   -0.143400   +0.019640    0.000000    0.000000   0.000000   0.000000
  -3.00   -0.115100   +0.019350    0.000000    0.000000   0.000000   0.000000
  -2.75   -0.088600   +0.019150    0.000000    0.000000   0.000000   0.000000
  -2.50   -0.066100   +0.019000    0.000000    0.000000   0.000000   0.000000
  -2.25   -0.037600   +0.018780    0.000000    0.000000   0.000000   0.000000
  -2.00   -0.012600   +0.000551    0.000000    0.000000   0.000000   0.000000
  -1.75   +0.010700   +0.018540    0.000000    0.000000   0.000000   0.000000
  -1.50   +0.039300   +0.018380    0.000000    0.000000   0.000000   0.000000
  -1.25   +0.063400   +0.018340    0.000000    0.000000   0.000000   0.000000
  -1.00   +0.087200   +0.018280    0.000000    0.000000   0.000000   0.000000
  -0.75   +0.115500   +0.018180    0.000000    0.000000   0.000000   0.000000
  -0.50   +0.139700   +0.018180    0.000000    0.000000   0.000000   0.000000
  -0.25   +0.163600   +0.018190    0.000000    0.000000   0.000000   0.000000
  +0.00   +0.191500   +0.018170    0.000000    0.000000   0.000000   0.000000
  +0.25   +0.217400   +0.018210    0.000000    0.000000   0.000000   0.000000
  +0.50   +0.240600   +0.018280    0.000000    0.000000   0.000000   0.000000
  +0.75   +0.267800   +0.018320    0.000000    0.000000   0.000000   0.000000
  +1.00   +0.296500   +0.018410    0.000000    0.000000   0.000000   0.000000
  +1.25   +0.319500   +0.018550    0.000000    0.000000   0.000000   0.000000
  +1.50   +0.345200   +0.018660    0.000000    0.000000   0.000000   0.000000
  +1.75   +0.376000   +0.018790    0.000000    0.000000   0.000000   0.000000
  +2.00   +0.400900   +0.018990    0.000000    0.000000   0.000000   0.000000
  +2.25   +0.425900   +0.019180    0.000000    0.000000   0.000000   0.000000
  +2.50   +0.457400   +0.019380    0.000000    0.000000   0.000000   0.000000
  +2.75   +0.487400   +0.019580    0.000000    0.000000   0.000000   0.000000
  +3.00   +0.514500   +0.019860    0.000000    0.000000   0.000000   0.000000
  +3.25   +0.545900   +0.020120    0.000000    0.000000   0.000000   0.000000
  +3.50   +0.575500   +0.020320    0.000000    0.000000   0.000000   0.000000
  +3.75   +0.612600   +0.020650    0.000000    0.000000   0.000000   0.000000
  +4.00   +0.642400   +0.020950    0.000000    0.000000   0.000000   0.000000
  +4.25   +0.680700   +0.021230    0.000000    0.000000   0.000000   0.000000
  +4.50   +0.718800   +0.021480    0.000000    0.000000   0.000000   0.000000
  +4.75   +0.755400   +0.021810    0.000000    0.000000   0.000000   0.000000
  +5.00   +0.790300   +0.022080    0.000000    0.000000   0.000000   0.000000
  +5.25   +0.831100   +0.022300    0.000000    0.000000   0.000000   0.000000
  +5.50   +0.865700   +0.022620    0.000000    0.000000   0.000000   0.000000
  +5.75   +0.902100   +0.022910    0.000000    0.000000   0.000000   0.000000
  +6.00   +0.941000   +0.023140    0.000000    0.000000   0.000000   0.000000
  +6.25   +0.961300   +0.023400    0.000000    0.000000   0.000000   0.000000
  +6.50   +0.966100   +0.023660    0.000000    0.000000   0.000000   0.000000
  +6.75   +0.972700   +0.023890    0.000000    0.000000   0.000000   0.000000
  +7.00   +0.982900   +0.024090    0.000000    0.000000   0.000000   0.000000
  +7.25   +0.991900   +0.024370    0.000000    0.000000   0.000000   0.000000
  +7.50   +0.994700   +0.024720    0.000000    0.000000   0.000000   0.000000
  +7.75   +0.999900   +0.025030    0.000000    0.000000   0.000000   0.000000
  +8.00   +1.008500   +0.025290    0.000000    0.000000   0.000000   0.000000
  +8.25   +1.015700   +0.025630    0.000000    0.000000   0.000000   0.000000
  +8.50   +1.016400   +0.026090    0.000000    0.000000   0.000000   0.000000
  +8.75   +1.022400   +0.026530    0.000000    0.000000   0.000000   0.000000
  +9.00   +1.034000   +0.026930    0.000000    0.000000   0.000000   0.000000
