xflr5 v6.48

 Calculated polar for: NACA 2421

 1 1 Reynolds number fixed          Mach number fixed         

 xtrf =   1.000 (top)        1.000 (bottom)
 Mach =   0.000     Re =     0.070 e 6     Ncrit =   5.000

  alpha     CL        CD       CDp       Cm    Top Xtr Bot Xtr   Cpmin    Chinge    XCp    
 ------- -------- --------- --------- -------- ------- ------- -------- --------- ---------
  -9.000  -0.8145   0.03630   0.02626  -0.0411  0.9661  0.1722  -2.9647   0.0000   0.1800
  -8.750  -0.7892   0.03538   0.02522  -0.0416  0.9588  0.1780  -2.8776   0.0000   0.1778
  -8.500  -0.7615   0.03469   0.02461  -0.0424  0.9511  0.1834  -2.7812   0.0000   0.1749
  -8.250  -0.7280   0.03397   0.02383  -0.0443  0.9455  0.1910  -2.6777   0.0000   0.1697
  -8.000  -0.7082   0.03328   0.02299  -0.0436  0.9357  0.1981  -2.6030   0.0000   0.1693
  -7.750  -0.6779   0.03268   0.02252  -0.0447  0.9287  0.2053  -2.5133   0.0000   0.1650
  -7.500  -0.6412   0.03201   0.02177  -0.0469  0.9238  0.2148  -2.4182   0.0000   0.1575
  -7.250  -0.6244   0.03146   0.02113  -0.0454  0.9123  0.2215  -2.3551   0.0000   0.1583
  -7.000  -0.5918   0.03090   0.02065  -0.0466  0.9057  0.2300  -2.2650   0.0000   0.1521
  -6.750  -0.5535   0.03025   0.01985  -0.0490  0.9011  0.2417  -2.1703   0.0000   0.1421
  -6.500  -0.5391   0.02987   0.01960  -0.0468  0.8885  0.2487  -2.1089   0.0000   0.1441
  -6.250  -0.5062   0.02932   0.01903  -0.0480  0.8819  0.2597  -2.0219   0.0000   0.1360
  -6.000  -0.4688   0.02869   0.01841  -0.0498  0.8772  0.2709  -1.9296   0.0000   0.1240
  -5.750  -0.4549   0.02842   0.01817  -0.0475  0.8642  0.2800  -1.8771   0.0000   0.1263
  -5.500  -0.4233   0.02790   0.01760  -0.0482  0.8570  0.2924  -1.8036   0.0000   0.1164
  -5.250  -0.3869   0.02734   0.01707  -0.0497  0.8520  0.3051  -1.7227   0.0000   0.1012
  -5.000  -0.3727   0.02713   0.01679  -0.0473  0.8388  0.3160  -1.6728   0.0000   0.1029
  -4.750  -0.3423   0.02666   0.01644  -0.0477  0.8313  0.3285  -1.6007   0.0000   0.0902
  -4.500  -0.3068   0.02613   0.01587  -0.0489  0.8261  0.3437  -1.5244   0.0000   0.0691
  -4.250  -0.2912   0.02597   0.01580  -0.0467  0.8136  0.3551  -1.4745   0.0000   0.0682
  -4.000  -0.2622   0.02557   0.01538  -0.0468  0.8052  0.3704  -1.4142   0.0000   0.0496
  -3.750  -0.2271   0.02506   0.01494  -0.0478  0.7993  0.3869  -1.3467   0.0000   0.0162
  -3.500  -0.2097   0.02493   0.01483  -0.0458  0.7870  0.4006  -1.3000   0.0000   0.0077
  -3.250  -0.1825   0.02462   0.01454  -0.0455  0.7782  0.4178  -1.2426   0.0000  -0.0244
  -3.000  -0.1483   0.02419   0.01418  -0.0462  0.7720  0.4360  -1.1795   0.0000  -0.0899
  -2.750  -0.1289   0.02410   0.01411  -0.0446  0.7605  0.4530  -1.1368   0.0000  -0.1257
  -2.500  -0.1029   0.02386   0.01394  -0.0440  0.7507  0.4720  -1.0873   0.0000  -0.2106
  -2.250  -0.0692   0.02348   0.01362  -0.0445  0.7439  0.4929  -1.0308   0.0000  -0.4373
  -2.000  -0.0487   0.02344   0.01362  -0.0430  0.7329  0.5123  -0.9880   0.0000  -0.6882
  -1.750  -0.0239   0.02332   0.01353  -0.0422  0.7230  0.5338  -0.9448   0.0000  -1.6099
  -1.500   0.0090   0.02303   0.01329  -0.0425  0.7157  0.5564  -0.8954   0.0000   5.1855
  -1.250   0.0319   0.02302   0.01333  -0.0413  0.7054  0.5772  -0.8553   0.0000   1.5940
  -1.000   0.0555   0.02298   0.01332  -0.0402  0.6949  0.5996  -0.8150   0.0000   0.9959
  -0.750   0.0868   0.02280   0.01313  -0.0402  0.6873  0.6238  -0.7725   0.0000   0.7227
  -0.500   0.1133   0.02282   0.01323  -0.0395  0.6784  0.6449  -0.7950   0.0000   0.6025
  -0.250   0.1356   0.02292   0.01339  -0.0381  0.6676  0.6663  -0.8157   0.0000   0.5318
   0.000   0.1660   0.02283   0.01329  -0.0380  0.6593  0.6890  -0.8431   0.0000   0.4769
   0.250   0.1949   0.02283   0.01326  -0.0376  0.6515  0.7119  -0.8704   0.0000   0.4395
   0.500   0.2167   0.02309   0.01362  -0.0362  0.6408  0.7314  -0.8925   0.0000   0.4119
   0.750   0.2465   0.02314   0.01368  -0.0359  0.6322  0.7517  -0.9206   0.0000   0.3897
   1.000   0.2810   0.02310   0.01355  -0.0364  0.6253  0.7731  -0.9536   0.0000   0.3727
   1.250   0.3005   0.02347   0.01399  -0.0346  0.6147  0.7924  -0.9760   0.0000   0.3577
   1.500   0.3304   0.02368   0.01421  -0.0345  0.6056  0.8101  -1.0063   0.0000   0.3463
   1.750   0.3643   0.02374   0.01419  -0.0350  0.5983  0.8289  -1.0400   0.0000   0.3374
   2.000   0.3927   0.02404   0.01449  -0.0348  0.5896  0.8466  -1.0714   0.0000   0.3295
   2.250   0.4230   0.02438   0.01485  -0.0350  0.5797  0.8622  -1.1043   0.0000   0.3233
   2.500   0.4561   0.02453   0.01493  -0.0356  0.5718  0.8792  -1.1401   0.0000   0.3182
   2.750   0.4990   0.02473   0.01502  -0.0380  0.5644  0.8921  -1.1850   0.0000   0.3161
   3.000   0.5269   0.02518   0.01553  -0.0382  0.5543  0.9073  -1.2187   0.0000   0.3121
   3.250   0.5601   0.02541   0.01570  -0.0391  0.5455  0.9231  -1.2578   0.0000   0.3092
   3.500   0.6134   0.02552   0.01567  -0.0436  0.5378  0.9316  -1.3152   0.0000   0.3104
   3.750   0.6452   0.02597   0.01618  -0.0449  0.5283  0.9461  -1.3555   0.0000   0.3085
   4.000   0.6881   0.02624   0.01646  -0.0481  0.5185  0.9561  -1.4059   0.0000   0.3086
   4.250   0.7308   0.02632   0.01643  -0.0509  0.5106  0.9664  -1.4608   0.0000   0.3082
   4.500   0.7690   0.02665   0.01676  -0.0535  0.5017  0.9767  -1.5116   0.0000   0.3078
   4.750   0.8069   0.02697   0.01710  -0.0561  0.4917  0.9866  -1.5630   0.0000   0.3076
   5.000   0.8496   0.02706   0.01711  -0.0592  0.4833  0.9949  -1.6243   0.0000   0.3075
   5.250   0.8799   0.02729   0.01728  -0.0603  0.4755  1.0000  -1.6739   0.0000   0.3060
   5.500   0.8813   0.02770   0.01776  -0.0563  0.4677  1.0000  -1.6946   0.0000   0.3009
   5.750   0.8890   0.02795   0.01799  -0.0531  0.4603  1.0000  -1.7255   0.0000   0.2964
   6.000   0.9042   0.02807   0.01805  -0.0510  0.4538  1.0000  -1.7653   0.0000   0.2926
   6.250   0.9135   0.02839   0.01833  -0.0480  0.4471  1.0000  -1.7983   0.0000   0.2884
   6.500   0.9116   0.02893   0.01894  -0.0433  0.4395  1.0000  -1.8182   0.0000   0.2829
   6.750   0.9187   0.02927   0.01926  -0.0399  0.4322  1.0000  -1.8507   0.0000   0.2784
   7.000   0.9357   0.02942   0.01932  -0.0380  0.4257  1.0000  -1.8973   0.0000   0.2752
   7.250   0.9445   0.02984   0.01970  -0.0350  0.4190  1.0000  -1.9336   0.0000   0.2712
   7.500   0.9394   0.03052   0.02046  -0.0299  0.4114  1.0000  -1.9526   0.0000   0.2655
   7.750   0.9458   0.03096   0.02088  -0.0265  0.4042  1.0000  -1.9861   0.0000   0.2612
   8.000   0.9645   0.03113   0.02096  -0.0248  0.3977  1.0000  -2.0387   0.0000   0.2586
   8.250   0.9690   0.03169   0.02151  -0.0212  0.3911  1.0000  -2.0736   0.0000   0.2543
   8.500   0.9606   0.03261   0.02251  -0.0161  0.3836  1.0000  -2.0904   0.0000   0.2486
   8.750   0.9687   0.03317   0.02311  -0.0133  0.3763  1.0000  -2.1299   0.0000   0.2451
   9.000   0.9916   0.03332   0.02316  -0.0124  0.3698  1.0000  -2.1909   0.0000   0.2436


