xflr5 v6.48

 Calculated polar for: NACA 2421

 1 1 Reynolds number fixed          Mach number fixed         

 xtrf =   1.000 (top)        1.000 (bottom)
 Mach =   0.000     Re =     0.100 e 6     Ncrit =   5.000

  alpha     CL        CD       CDp       Cm    Top Xtr Bot Xtr   Cpmin    Chinge    XCp    
 ------- -------- --------- --------- -------- ------- ------- -------- --------- ---------
  -9.000  -0.7455   0.02950   0.02011  -0.0545  0.9465  0.1598  -2.8897   0.0000   0.1561
  -8.750  -0.7238   0.02891   0.01956  -0.0541  0.9383  0.1652  -2.8023   0.0000   0.1546
  -8.500  -0.6969   0.02831   0.01889  -0.0545  0.9310  0.1717  -2.7080   0.0000   0.1512
  -8.250  -0.6628   0.02762   0.01814  -0.0563  0.9264  0.1783  -2.6062   0.0000   0.1445
  -8.000  -0.6378   0.02703   0.01762  -0.0562  0.9190  0.1843  -2.5251   0.0000   0.1413
  -7.750  -0.6147   0.02654   0.01709  -0.0557  0.9100  0.1914  -2.4482   0.0000   0.1389
  -7.500  -0.5825   0.02594   0.01641  -0.0568  0.9045  0.1996  -2.3586   0.0000   0.1319
  -7.250  -0.5547   0.02539   0.01593  -0.0572  0.8980  0.2074  -2.2746   0.0000   0.1263
  -7.000  -0.5349   0.02501   0.01550  -0.0558  0.8873  0.2151  -2.2048   0.0000   0.1251
  -6.750  -0.5040   0.02444   0.01494  -0.0565  0.8811  0.2234  -2.1189   0.0000   0.1172
  -6.500  -0.4723   0.02391   0.01444  -0.0574  0.8756  0.2330  -2.0316   0.0000   0.1075
  -6.250  -0.4555   0.02366   0.01410  -0.0554  0.8634  0.2416  -1.9683   0.0000   0.1076
  -6.000  -0.4267   0.02313   0.01368  -0.0556  0.8563  0.2511  -1.8913   0.0000   0.0986
  -5.750  -0.3935   0.02265   0.01314  -0.0566  0.8508  0.2624  -1.8139   0.0000   0.0847
  -5.500  -0.3776   0.02241   0.01292  -0.0544  0.8382  0.2708  -1.7594   0.0000   0.0846
  -5.250  -0.3492   0.02200   0.01253  -0.0544  0.8306  0.2823  -1.6889   0.0000   0.0724
  -5.000  -0.3164   0.02155   0.01206  -0.0552  0.8250  0.2945  -1.6139   0.0000   0.0529
  -4.750  -0.2997   0.02136   0.01193  -0.0531  0.8123  0.3048  -1.5596   0.0000   0.0501
  -4.500  -0.2710   0.02101   0.01153  -0.0531  0.8037  0.3174  -1.4912   0.0000   0.0306
  -4.250  -0.2407   0.02060   0.01117  -0.0534  0.7964  0.3307  -1.4277   0.0000   0.0036
  -4.000  -0.2210   0.02045   0.01101  -0.0518  0.7842  0.3431  -1.3774   0.0000  -0.0097
  -3.750  -0.1936   0.02011   0.01074  -0.0516  0.7756  0.3568  -1.3184   0.0000  -0.0430
  -3.500  -0.1639   0.01980   0.01038  -0.0517  0.7677  0.3718  -1.2579   0.0000  -0.0945
  -3.250  -0.1434   0.01964   0.01030  -0.0503  0.7555  0.3861  -1.2078   0.0000  -0.1309
  -3.000  -0.1151   0.01935   0.01002  -0.0501  0.7462  0.4020  -1.1538   0.0000  -0.2198
  -2.750  -0.0886   0.01915   0.00982  -0.0496  0.7368  0.4194  -1.1036   0.0000  -0.3510
  -2.500  -0.0661   0.01900   0.00977  -0.0485  0.7256  0.4359  -1.0576   0.0000  -0.5329
  -2.250  -0.0376   0.01878   0.00954  -0.0483  0.7167  0.4549  -1.0065   0.0000  -1.1105
  -2.000  -0.0126   0.01865   0.00945  -0.0476  0.7066  0.4747  -0.9606   0.0000  -3.7330
  -1.750   0.0107   0.01854   0.00942  -0.0465  0.6953  0.4939  -0.9194   0.0000   4.7897
  -1.500   0.0393   0.01838   0.00923  -0.0463  0.6865  0.5151  -0.8740   0.0000   1.4732
  -1.250   0.0634   0.01834   0.00921  -0.0454  0.6767  0.5368  -0.8329   0.0000   0.9882
  -1.000   0.0872   0.01828   0.00925  -0.0444  0.6661  0.5577  -0.7940   0.0000   0.7705
  -0.750   0.1155   0.01818   0.00915  -0.0441  0.6572  0.5793  -0.7958   0.0000   0.6371
  -0.500   0.1397   0.01818   0.00918  -0.0432  0.6473  0.6008  -0.8182   0.0000   0.5608
  -0.250   0.1636   0.01819   0.00924  -0.0422  0.6372  0.6229  -0.8404   0.0000   0.5072
   0.000   0.1915   0.01817   0.00923  -0.0418  0.6288  0.6439  -0.8664   0.0000   0.4654
   0.250   0.2174   0.01821   0.00930  -0.0411  0.6200  0.6649  -0.8919   0.0000   0.4348
   0.500   0.2406   0.01828   0.00941  -0.0400  0.6099  0.6861  -0.9156   0.0000   0.4109
   0.750   0.2678   0.01832   0.00946  -0.0394  0.6012  0.7068  -0.9424   0.0000   0.3910
   1.000   0.2965   0.01841   0.00952  -0.0391  0.5936  0.7268  -0.9713   0.0000   0.3750
   1.250   0.3195   0.01855   0.00974  -0.0380  0.5842  0.7466  -0.9969   0.0000   0.3613
   1.500   0.3452   0.01866   0.00986  -0.0372  0.5753  0.7668  -1.0249   0.0000   0.3496
   1.750   0.3760   0.01879   0.00994  -0.0372  0.5676  0.7849  -1.0567   0.0000   0.3403
   2.000   0.4009   0.01899   0.01017  -0.0364  0.5593  0.8034  -1.0858   0.0000   0.3317
   2.250   0.4259   0.01918   0.01040  -0.0356  0.5507  0.8225  -1.1156   0.0000   0.3240
   2.500   0.4574   0.01938   0.01057  -0.0359  0.5425  0.8379  -1.1506   0.0000   0.3184
   2.750   0.4874   0.01958   0.01069  -0.0360  0.5352  0.8550  -1.1855   0.0000   0.3135
   3.000   0.5145   0.01986   0.01103  -0.0357  0.5265  0.8710  -1.2196   0.0000   0.3087
   3.250   0.5459   0.02012   0.01128  -0.0362  0.5181  0.8850  -1.2575   0.0000   0.3053
   3.500   0.5755   0.02032   0.01138  -0.0363  0.5106  0.9012  -1.2948   0.0000   0.3017
   3.750   0.6126   0.02065   0.01170  -0.0379  0.5024  0.9122  -1.3405   0.0000   0.3004
   4.000   0.6424   0.02095   0.01202  -0.0383  0.4938  0.9266  -1.3805   0.0000   0.2979
   4.250   0.6807   0.02123   0.01226  -0.0404  0.4855  0.9375  -1.4288   0.0000   0.2973
   4.500   0.7188   0.02148   0.01239  -0.0423  0.4779  0.9477  -1.4807   0.0000   0.2967
   4.750   0.7554   0.02181   0.01280  -0.0445  0.4687  0.9569  -1.5305   0.0000   0.2964
   5.000   0.7903   0.02208   0.01304  -0.0461  0.4601  0.9664  -1.5815   0.0000   0.2957
   5.250   0.8311   0.02230   0.01313  -0.0489  0.4522  0.9737  -1.6415   0.0000   0.2958
   5.500   0.8657   0.02262   0.01350  -0.0507  0.4435  0.9826  -1.6950   0.0000   0.2953
   5.750   0.9021   0.02291   0.01385  -0.0529  0.4343  0.9907  -1.7543   0.0000   0.2952
   6.000   0.9410   0.02314   0.01399  -0.0555  0.4260  0.9974  -1.8189   0.0000   0.2952
   6.250   0.9613   0.02340   0.01422  -0.0546  0.4188  1.0000  -1.8641   0.0000   0.2927
   6.500   0.9661   0.02366   0.01454  -0.0508  0.4116  1.0000  -1.8946   0.0000   0.2881
   6.750   0.9727   0.02389   0.01476  -0.0472  0.4047  1.0000  -1.9292   0.0000   0.2836
   7.000   0.9829   0.02409   0.01487  -0.0442  0.3982  1.0000  -1.9686   0.0000   0.2796
   7.250   0.9919   0.02437   0.01511  -0.0410  0.3919  1.0000  -2.0062   0.0000   0.2756
   7.500   0.9947   0.02472   0.01552  -0.0368  0.3847  1.0000  -2.0362   0.0000   0.2708
   7.750   0.9999   0.02503   0.01583  -0.0330  0.3778  1.0000  -2.0722   0.0000   0.2664
   8.000   1.0085   0.02529   0.01601  -0.0297  0.3714  1.0000  -2.1143   0.0000   0.2624
   8.250   1.0157   0.02563   0.01629  -0.0263  0.3652  1.0000  -2.1543   0.0000   0.2584
   8.500   1.0164   0.02609   0.01686  -0.0219  0.3582  1.0000  -2.1853   0.0000   0.2536
   8.750   1.0224   0.02653   0.01731  -0.0185  0.3511  1.0000  -2.2235   0.0000   0.2497
   9.000   1.0340   0.02693   0.01763  -0.0160  0.3445  1.0000  -2.2698   0.0000   0.2467


