xflr5 v6.48

 Calculated polar for: NACA 2421

 1 1 Reynolds number fixed          Mach number fixed

 xtrf =   1.000 (top)        1.000 (bottom)
 Mach =   0.000     Re =     0.090 e 6     Ncrit =   5.000

  alpha     CL        CD       CDp       Cm    Top Xtr Bot Xtr   Cpmin    Chinge    XCp
  -9.00   -0.768800   +0.031340    0.000000    0.000000   0.000000   0.000000
  -8.75   -0.735300   +0.030640    0.000000    0.000000   0.000000   0.000000
  -8.50   -0.715800   +0.030050    0.000000    0.000000   0.000000   0.000000
  -8.25   -0.686100   +0.029340    0.000000    0.000000   0.000000   0.000000
  -8.00   -0.651000   +0.028690    0.000000    0.000000   0.000000   0.000000
  -7.75   -0.631900   +0.028220    0.000000    0.000000   0.000000   0.000000
  -7.50   -0.603000   +0.027600    0.000000    0.000000   0.000000   0.000000
  -7.25   -0.568900   +0.027010    0.000000    0.000000   0.000000   0.000000
  -7.00   -0.548200   +0.026590    0.000000    0.000000   0.000000   0.000000
  -6.75   -0.522000   +0.026050    0.000000    0.000000   0.000000   0.000000
  -6.50   -0.488500   +0.025510    0.000000    0.000000   0.000000   0.000000
  -6.25   -0.467300   +0.025110    0.000000    0.000000   0.000000   0.000000
  -6.00   -0.442500   +0.024690    0.000000    0.000000   0.000000   0.000000
  -5.75   -0.409400   +0.024190    0.000000    0.000000   0.000000   0.000000
  -5.50   -0.387000   +0.023820    0.000000    0.000000   0.000000   0.000000
  -5.25   -0.363000   +0.023500    0.000000    0.000000   0.000000   0.000000
  -5.00   -0.332100   +0.023010    0.000000    0.000000   0.000000   0.000000
  -4.75   -0.306500   +0.022710    0.000000    0.000000   0.000000   0.000000
  -4.50   -0.284600   +0.022410    0.000000    0.000000   0.000000   0.000000
  -4.25   -0.253500   +0.022000    0.000000    0.000000   0.000000   0.000000
  -4.00   -0.228300   +0.021690    0.000000    0.000000   0.000000   0.000000
  -3.75   -0.205300   +0.021470    0.000000    0.000000   0.000000   0.000000
  -3.50   -0.175600   +0.021090    0.000000    0.000000   0.000000   0.000000
  -3.25   -0.149600   +0.020860    0.000000    0.000000   0.000000   0.000000
  -3.00   -0.127000   +0.020650    0.000000    0.000000   0.000000   0.000000
  -2.75   -0.096800   +0.020330    0.000000    0.000000   0.000000   0.000000
  -2.50   -0.072500   +0.020180    0.000000    0.000000   0.000000   0.000000
  -2.25   -0.048800   +0.020030    0.000000    0.000000   0.000000   0.000000
  -2.00   -0.019000   +0.019780    0.000000    0.000000   0.000000   0.000000
  -1.75   +0.004600   +0.019700    0.000000    0.000000   0.000000   0.000000
  -1.50   +0.028800   +0.019600    0.000000    0.000000   0.000000   0.000000
  -1.25   +0.058500   +0.019420    0.000000    0.000000   0.000000   0.000000
  -1.00   +0.081900   +0.019410    0.000000    0.000000   0.000000   0.000000
  -0.75   +0.105900   +0.019380    0.000000    0.000000   0.000000   0.000000
  -0.50   +0.135400   +0.019280    0.000000    0.000000   0.000000   0.000000
  -0.25   +0.159600   +0.019320    0.000000    0.000000   0.000000   0.000000
  +0.00   +0.183300   +0.019360    0.000000    0.000000   0.000000   0.000000
  +0.25   +0.211800   +0.019350    0.000000    0.000000   0.000000   0.000000
  +0.50   +0.238900   +0.019420    0.000000    0.000000   0.000000   0.000000
  +0.75   +0.262100   +0.019540    0.000000    0.000000   0.000000   0.000000
  +1.00   +0.288700   +0.019590    0.000000    0.000000   0.000000   0.000000
  +1.25   +0.320600   +0.019700    0.000000    0.000000   0.000000   0.000000
  +1.50   +0.343400   +0.019920    0.000000    0.000000   0.000000   0.000000
  +1.75   +0.368400   +0.020050    0.000000    0.000000   0.000000   0.000000
  +2.00   +0.401800   +0.020210    0.000000    0.000000   0.000000   0.000000
  +2.25   +0.429300   +0.020460    0.000000    0.000000   0.000000   0.000000
  +2.50   +0.453200   +0.020690    0.000000    0.000000   0.000000   0.000000
  +2.75   +0.488400   +0.020920    0.000000    0.000000   0.000000   0.000000
  +3.00   +0.521400   +0.021130    0.000000    0.000000   0.000000   0.000000
  +3.25   +0.548900   +0.021470    0.000000    0.000000   0.000000   0.000000
  +3.50   +0.583500   +0.021750    0.000000    0.000000   0.000000   0.000000
  +3.75   +0.616600   +0.021950    0.000000    0.000000   0.000000   0.000000
  +4.00   +0.657200   +0.022310    0.000000    0.000000   0.000000   0.000000
  +4.25   +0.690200   +0.022620    0.000000    0.000000   0.000000   0.000000
  +4.50   +0.733600   +0.022850    0.000000    0.000000   0.000000   0.000000
  +4.75   +0.769800   -0.044841    0.000000    0.000000   0.000000   0.000000
  +5.00   +0.807400   +0.023430    0.000000    0.000000   0.000000   0.000000
  +5.25   +0.844100   +0.023670    0.000000    0.000000   0.000000   0.000000
  +5.50   +0.885900   +0.023850    0.000000    0.000000   0.000000   0.000000
  +5.75   +0.921000   +0.024230    0.000000    0.000000   0.000000   0.000000
  +6.00   +0.937600   +0.024470    0.000000    0.000000   0.000000   0.000000
  +6.25   +0.948900   +0.024630    0.000000    0.000000   0.000000   0.000000
  +6.50   +0.960200   +0.024870    0.000000    0.000000   0.000000   0.000000
  +6.75   +0.962500   +0.025210    0.000000    0.000000   0.000000   0.000000
  +7.00   +0.968300   +0.025500    0.000000    0.000000   0.000000   0.000000
  +7.25   +0.978900   +0.025730    0.000000    0.000000   0.000000   0.000000
  +7.50   +0.990900   +0.026010    0.000000    0.000000   0.000000   0.000000
  +7.75   +0.991300   +0.026470    0.000000    0.000000   0.000000   0.000000
  +8.00   +0.994400   +0.026840    0.000000    0.000000   0.000000   0.000000
  +8.25   +1.003400   +0.027120    0.000000    0.000000   0.000000   0.000000
  +8.50   +1.014800   +0.027480    0.000000    0.000000   0.000000   0.000000
  +8.75   +1.014300   +0.028100    0.000000    0.000000   0.000000   0.000000
  +9.00   +1.020200   +0.028650    0.000000    0.000000   0.000000   0.000000
