xflr5 v6.48

 Calculated polar for: NACA 2421

 1 1 Reynolds number fixed          Mach number fixed

 xtrf =   1.000 (top)        1.000 (bottom)
 Mach =   0.000     Re =     0.080 e 6     Ncrit =   5.000

  alpha     CL        CD       CDp       Cm    Top Xtr Bot Xtr   Cpmin    Chinge    XCp
  -9.00   -0.791200   +0.033580    0.000000    0.000000   0.000000   0.000000
  -8.75   -0.763100   +0.032820    0.000000    0.000000   0.000000   0.000000
  -8.50   -0.728400   +0.032000    0.000000    0.000000   0.000000   0.000000
  -8.25   -0.710000   +0.031440    0.000000    0.000000   0.000000   0.000000
  -8.00   -0.679300   +0.030800    0.000000    0.000000   0.000000   0.000000
  -7.75   -0.642600   +0.030080    0.000000    0.000000   0.000000   0.000000
  -7.50   -0.626900   +0.029640    0.000000    0.000000   0.000000   0.000000
  -7.25   -0.594600   +0.029050    0.000000    0.000000   0.000000   0.000000
  -7.00   -0.557700   +0.028370    0.000000    0.000000   0.000000   0.000000
  -6.75   -0.541900   +0.028010    0.000000    0.000000   0.000000   0.000000
  -6.50   -0.511300   +0.027470    0.000000    0.000000   0.000000   0.000000
  -6.25   -0.476300   +0.026870    0.000000    0.000000   0.000000   0.000000
  -6.00   -0.459700   +0.026570    0.000000    0.000000   0.000000   0.000000
  -5.75   -0.430500   +0.026060    0.000000    0.000000   0.000000   0.000000
  -5.50   -0.396000   +0.025540    0.000000    0.000000   0.000000   0.000000
  -5.25   -0.378400   +0.025260    0.000000    0.000000   0.000000   0.000000
  -5.00   -0.350800   +0.024850    0.000000    0.000000   0.000000   0.000000
  -4.75   -0.317100   +0.024340    0.000000    0.000000   0.000000   0.000000
  -4.50   -0.297700   +0.024120    0.000000    0.000000   0.000000   0.000000
  -4.25   -0.271400   +0.023770    0.000000    0.000000   0.000000   0.000000
  -4.00   -0.238200   +0.023290    0.000000    0.000000   0.000000   0.000000
  -3.75   -0.217400   +0.023080    0.000000    0.000000   0.000000   0.000000
  -3.50   -0.192000   +0.022800    0.000000    0.000000   0.000000   0.000000
  -3.25   -0.159800   +0.022390    0.000000    0.000000   0.000000   0.000000
  -3.00   -0.137600   +0.022240    0.000000    0.000000   0.000000   0.000000
  -2.75   -0.112900   +0.022000    0.000000    0.000000   0.000000   0.000000
  -2.50   -0.081000   +0.021650    0.000000    0.000000   0.000000   0.000000
  -2.25   -0.058900   +0.021560    0.000000    0.000000   0.000000   0.000000
  -2.00   -0.034200   +0.021410    0.000000    0.000000   0.000000   0.000000
  -1.75   -0.002800   +0.021140    0.000000    0.000000   0.000000   0.000000
  -1.50   +0.019800   +0.021090    0.000000    0.000000   0.000000   0.000000
  -1.25   +0.044200   +0.021010    0.000000    0.000000   0.000000   0.000000
  -1.00   +0.075200   +0.020830    0.000000    0.000000   0.000000   0.000000
  -0.75   +0.098900   +0.020850    0.000000    0.000000   0.000000   0.000000
  -0.50   +0.122500   +0.020860    0.000000    0.000000   0.000000   0.000000
  -0.25   +0.152400   +0.020760    0.000000    0.000000   0.000000   0.000000
  +0.00   +0.178500   +0.020820    0.000000    0.000000   0.000000   0.000000
  +0.25   +0.202000   +0.020920    0.000000    0.000000   0.000000   0.000000
  +0.50   +0.230100   +0.020920    0.000000    0.000000   0.000000   0.000000
  +0.75   +0.259900   +0.020990    0.000000    0.000000   0.000000   0.000000
  +1.00   +0.282900   +0.021210    0.000000    0.000000   0.000000   0.000000
  +1.25   +0.310300   +0.021310    0.000000    0.000000   0.000000   0.000000
  +1.50   +0.343200   +0.021380    0.000000    0.000000   0.000000   0.000000
  +1.75   +0.368100   +0.021700    0.000000    0.000000   0.000000   0.000000
  +2.00   +0.394900   +0.021900    0.000000    0.000000   0.000000   0.000000
  +2.25   +0.427100   +0.022040    0.000000    0.000000   0.000000   0.000000
  +2.50   +0.460800   +0.022340    0.000000    0.000000   0.000000   0.000000
  +2.75   +0.485900   +0.022640    0.000000    0.000000   0.000000   0.000000
  +3.00   +0.522300   +0.022870    0.000000    0.000000   0.000000   0.000000
  +3.25   +0.562200   +0.023050    0.000000    0.000000   0.000000   0.000000
  +3.50   +0.588600   +0.023460    0.000000    0.000000   0.000000   0.000000
  +3.75   +0.630400   +0.023760    0.000000    0.000000   0.000000   0.000000
  +4.00   +0.669200   +0.023930    0.000000    0.000000   0.000000   0.000000
  +4.25   +0.711900   +0.024280    0.000000    0.000000   0.000000   0.000000
  +4.50   +0.745900   +0.024590    0.000000    0.000000   0.000000   0.000000
  +4.75   +0.788400   +0.024740    0.000000    0.000000   0.000000   0.000000
  +5.00   +0.827300   +0.025000    0.000000    0.000000   0.000000   0.000000
  +5.25   +0.863000   +0.025350    0.000000    0.000000   0.000000   0.000000
  +5.50   +0.903800   +0.025540    0.000000    0.000000   0.000000   0.000000
  +5.75   +0.923200   +0.025650    0.000000    0.000000   0.000000   0.000000
  +6.00   +0.923800   +0.026040    0.000000    0.000000   0.000000   0.000000
  +6.25   +0.929000   +0.026350    0.000000    0.000000   0.000000   0.000000
  +6.50   +0.939000   +0.026560    0.000000    0.000000   0.000000   0.000000
  +6.75   +0.958400   +0.026710    0.000000    0.000000   0.000000   0.000000
  +7.00   +0.955500   +0.027210    0.000000    0.000000   0.000000   0.000000
  +7.25   +0.958800   +0.027610    0.000000    0.000000   0.000000   0.000000
  +7.50   +0.968500   +0.027900    0.000000    0.000000   0.000000   0.000000
  +7.75   +0.989400   +0.028070    0.000000    0.000000   0.000000   0.000000
  +8.00   +0.983400   +0.028710    0.000000    0.000000   0.000000   0.000000
  +8.25   +0.982900   +0.029210    0.000000    0.000000   0.000000   0.000000
  +8.50   +0.991800   +0.029590    0.000000    0.000000   0.000000   0.000000
  +8.75   +1.013100   +0.029820    0.000000    0.000000   0.000000   0.000000
  +9.00   +1.007700   +0.030720    0.000000    0.000000   0.000000   0.000000
