xflr5 v6.48

 Calculated polar for: NACA 2421

 1 1 Reynolds number fixed          Mach number fixed         

 xtrf =   1.000 (top)        1.000 (bottom)
 Mach =   0.000     Re =     0.080 e 6     Ncrit =   5.000

  alpha     CL        CD       CDp       Cm    Top Xtr Bot Xtr   Cpmin    Chinge    XCp    
 ------- -------- --------- --------- -------- ------- ------- -------- --------- ---------
  -9.000  -0.7912   0.03358   0.02384  -0.0457  0.9565  0.1668  -2.9427   0.0000   0.1722
  -8.750  -0.7631   0.03282   0.02294  -0.0467  0.9495  0.1734  -2.8482   0.0000   0.1690
  -8.500  -0.7284   0.03200   0.02212  -0.0487  0.9449  0.1797  -2.7418   0.0000   0.1631
  -8.250  -0.7100   0.03144   0.02159  -0.0476  0.9347  0.1849  -2.6626   0.0000   0.1632
  -8.000  -0.6793   0.03080   0.02088  -0.0488  0.9283  0.1929  -2.5706   0.0000   0.1585
  -7.750  -0.6426   0.03008   0.02015  -0.0511  0.9240  0.2012  -2.4737   0.0000   0.1507
  -7.500  -0.6269   0.02964   0.01975  -0.0492  0.9124  0.2076  -2.4085   0.0000   0.1519
  -7.250  -0.5946   0.02905   0.01901  -0.0505  0.9060  0.2168  -2.3207   0.0000   0.1455
  -7.000  -0.5577   0.02837   0.01840  -0.0525  0.9017  0.2254  -2.2249   0.0000   0.1360
  -6.750  -0.5419   0.02801   0.01804  -0.0505  0.8897  0.2331  -2.1616   0.0000   0.1371
  -6.500  -0.5113   0.02747   0.01742  -0.0512  0.8827  0.2435  -2.0780   0.0000   0.1300
  -6.250  -0.4763   0.02687   0.01692  -0.0527  0.8778  0.2537  -1.9864   0.0000   0.1192
  -6.000  -0.4597   0.02657   0.01656  -0.0507  0.8657  0.2628  -1.9251   0.0000   0.1197
  -5.750  -0.4305   0.02606   0.01612  -0.0510  0.8581  0.2729  -1.8526   0.0000   0.1113
  -5.500  -0.3960   0.02554   0.01552  -0.0522  0.8528  0.2857  -1.7741   0.0000   0.0973
  -5.250  -0.3784   0.02526   0.01529  -0.0504  0.8410  0.2954  -1.7183   0.0000   0.0962
  -5.000  -0.3508   0.02485   0.01490  -0.0503  0.8326  0.3074  -1.6497   0.0000   0.0857
  -4.750  -0.3171   0.02434   0.01441  -0.0512  0.8270  0.3207  -1.5744   0.0000   0.0667
  -4.500  -0.2977   0.02412   0.01422  -0.0497  0.8160  0.3326  -1.5175   0.0000   0.0613
  -4.250  -0.2714   0.02377   0.01387  -0.0493  0.8066  0.3458  -1.4567   0.0000   0.0461
  -4.000  -0.2382   0.02329   0.01342  -0.0500  0.8001  0.3612  -1.3909   0.0000   0.0165
  -3.750  -0.2174   0.02308   0.01326  -0.0486  0.7891  0.3744  -1.3398   0.0000   0.0023
  -3.500  -0.1920   0.02280   0.01297  -0.0480  0.7794  0.3900  -1.2839   0.0000  -0.0254
  -3.250  -0.1598   0.02239   0.01262  -0.0485  0.7726  0.4063  -1.2210   0.0000  -0.0812
  -3.000  -0.1376   0.02224   0.01246  -0.0473  0.7620  0.4231  -1.1722   0.0000  -0.1237
  -2.750  -0.1129   0.02200   0.01232  -0.0465  0.7515  0.4400  -1.1235   0.0000  -0.1947
  -2.500  -0.0810   0.02165   0.01199  -0.0468  0.7440  0.4592  -1.0685   0.0000  -0.3691
  -2.250  -0.0589   0.02156   0.01191  -0.0456  0.7333  0.4788  -1.0237   0.0000  -0.5747
  -2.000  -0.0342   0.02141   0.01187  -0.0448  0.7231  0.4981  -0.9764   0.0000  -1.1362
  -1.750  -0.0028   0.02114   0.01162  -0.0449  0.7153  0.5195  -0.9282   0.0000  -16.3005
  -1.500   0.0198   0.02109   0.01160  -0.0438  0.7047  0.5406  -0.8882   0.0000   2.5565
  -1.250   0.0442   0.02101   0.01157  -0.0428  0.6941  0.5625  -0.8467   0.0000   1.2524
  -1.000   0.0752   0.02083   0.01142  -0.0428  0.6863  0.5847  -0.8010   0.0000   0.8342
  -0.750   0.0989   0.02085   0.01149  -0.0418  0.6765  0.6063  -0.7819   0.0000   0.6799
  -0.500   0.1225   0.02086   0.01153  -0.0407  0.6660  0.6284  -0.8036   0.0000   0.5854
  -0.250   0.1524   0.02076   0.01142  -0.0406  0.6577  0.6512  -0.8298   0.0000   0.5158
   0.000   0.1785   0.02082   0.01154  -0.0398  0.6486  0.6723  -0.8542   0.0000   0.4706
   0.250   0.2020   0.02092   0.01170  -0.0387  0.6384  0.6930  -0.8777   0.0000   0.4376
   0.500   0.2301   0.02092   0.01167  -0.0382  0.6301  0.7151  -0.9049   0.0000   0.4111
   0.750   0.2599   0.02099   0.01172  -0.0380  0.6221  0.7359  -0.9331   0.0000   0.3902
   1.000   0.2829   0.02121   0.01202  -0.0368  0.6117  0.7548  -0.9575   0.0000   0.3731
   1.250   0.3103   0.02131   0.01211  -0.0362  0.6031  0.7751  -0.9864   0.0000   0.3592
   1.500   0.3432   0.02138   0.01208  -0.0366  0.5961  0.7949  -1.0195   0.0000   0.3484
   1.750   0.3681   0.02170   0.01249  -0.0357  0.5864  0.8119  -1.0461   0.0000   0.3384
   2.000   0.3949   0.02190   0.01269  -0.0352  0.5772  0.8302  -1.0766   0.0000   0.3300
   2.250   0.4271   0.02204   0.01275  -0.0355  0.5696  0.8479  -1.1119   0.0000   0.3236
   2.500   0.4608   0.02234   0.01303  -0.0363  0.5616  0.8624  -1.1479   0.0000   0.3189
   2.750   0.4859   0.02264   0.01336  -0.0357  0.5522  0.8796  -1.1786   0.0000   0.3132
   3.000   0.5223   0.02287   0.01353  -0.0370  0.5437  0.8933  -1.2201   0.0000   0.3103
   3.250   0.5622   0.02305   0.01356  -0.0389  0.5365  0.9061  -1.2650   0.0000   0.3085
   3.500   0.5886   0.02346   0.01405  -0.0389  0.5273  0.9222  -1.2990   0.0000   0.3050
   3.750   0.6304   0.02376   0.01433  -0.0416  0.5179  0.9324  -1.3485   0.0000   0.3047
   4.000   0.6692   0.02393   0.01441  -0.0436  0.5102  0.9451  -1.3966   0.0000   0.3036
   4.250   0.7119   0.02428   0.01476  -0.0468  0.5012  0.9537  -1.4492   0.0000   0.3040
   4.500   0.7459   0.02459   0.01508  -0.0484  0.4919  0.9652  -1.4966   0.0000   0.3029
   4.750   0.7884   0.02474   0.01514  -0.0515  0.4834  0.9733  -1.5527   0.0000   0.3031
   5.000   0.8273   0.02500   0.01534  -0.0540  0.4752  0.9825  -1.6093   0.0000   0.3028
   5.250   0.8630   0.02535   0.01577  -0.0562  0.4655  0.9919  -1.6631   0.0000   0.3025
   5.500   0.9038   0.02554   0.01590  -0.0592  0.4566  0.9995  -1.7244   0.0000   0.3026
   5.750   0.9232   0.02565   0.01590  -0.0579  0.4502  1.0000  -1.7688   0.0000   0.2994
   6.000   0.9238   0.02604   0.01640  -0.0536  0.4428  1.0000  -1.7919   0.0000   0.2943
   6.250   0.9290   0.02635   0.01672  -0.0499  0.4355  1.0000  -1.8205   0.0000   0.2896
   6.500   0.9390   0.02656   0.01688  -0.0470  0.4287  1.0000  -1.8551   0.0000   0.2855
   6.750   0.9584   0.02671   0.01687  -0.0455  0.4225  1.0000  -1.9049   0.0000   0.2826
   7.000   0.9555   0.02721   0.01748  -0.0405  0.4152  1.0000  -1.9270   0.0000   0.2770
   7.250   0.9588   0.02761   0.01791  -0.0365  0.4079  1.0000  -1.9571   0.0000   0.2723
   7.500   0.9685   0.02790   0.01815  -0.0335  0.4011  1.0000  -1.9954   0.0000   0.2683
   7.750   0.9894   0.02807   0.01816  -0.0322  0.3948  1.0000  -2.0495   0.0000   0.2660
   8.000   0.9834   0.02871   0.01892  -0.0269  0.3877  1.0000  -2.0706   0.0000   0.2602
   8.250   0.9829   0.02921   0.01945  -0.0224  0.3805  1.0000  -2.0996   0.0000   0.2552
   8.500   0.9918   0.02959   0.01983  -0.0194  0.3738  1.0000  -2.1415   0.0000   0.2515
   8.750   1.0131   0.02982   0.01991  -0.0183  0.3674  1.0000  -2.2003   0.0000   0.2497
   9.000   1.0077   0.03072   0.02095  -0.0136  0.3602  1.0000  -2.2213   0.0000   0.2446


