xflr5 v6.48

 Calculated polar for: NACA 2421

 1 1 Reynolds number fixed          Mach number fixed         

 xtrf =   1.000 (top)        1.000 (bottom)
 Mach =   0.000     Re =     0.060 e 6     Ncrit =   5.000

  alpha     CL        CD       CDp       Cm    Top Xtr Bot Xtr   Cpmin    Chinge    XCp    
 ------- -------- --------- --------- -------- ------- ------- -------- --------- ---------
  -9.000  -0.8480   0.03970   0.02932  -0.0342  0.9788  0.1778  -2.9992   0.0000   0.1906
  -8.750  -0.8201   0.03897   0.02869  -0.0352  0.9711  0.1829  -2.9020   0.0000   0.1882
  -8.500  -0.7888   0.03814   0.02781  -0.0369  0.9648  0.1897  -2.8034   0.0000   0.1843
  -8.250  -0.7674   0.03718   0.02659  -0.0369  0.9556  0.1972  -2.7272   0.0000   0.1832
  -8.000  -0.7356   0.03656   0.02613  -0.0385  0.9485  0.2041  -2.6236   0.0000   0.1791
  -7.750  -0.7073   0.03591   0.02544  -0.0394  0.9412  0.2123  -2.5385   0.0000   0.1758
  -7.500  -0.6836   0.03512   0.02448  -0.0394  0.9317  0.2203  -2.4678   0.0000   0.1739
  -7.250  -0.6477   0.03453   0.02401  -0.0414  0.9256  0.2283  -2.3719   0.0000   0.1676
  -7.000  -0.6262   0.03398   0.02334  -0.0408  0.9156  0.2372  -2.3021   0.0000   0.1665
  -6.750  -0.5972   0.03337   0.02273  -0.0415  0.9074  0.2466  -2.2206   0.0000   0.1621
  -6.500  -0.5594   0.03280   0.02217  -0.0437  0.9019  0.2577  -2.1255   0.0000   0.1532
  -6.250  -0.5426   0.03231   0.02158  -0.0421  0.8899  0.2668  -2.0650   0.0000   0.1539
  -6.000  -0.5098   0.03182   0.02121  -0.0433  0.8826  0.2772  -1.9775   0.0000   0.1466
  -5.750  -0.4714   0.03119   0.02047  -0.0455  0.8775  0.2911  -1.8900   0.0000   0.1346
  -5.500  -0.4565   0.03091   0.02031  -0.0433  0.8647  0.2998  -1.8365   0.0000   0.1365
  -5.250  -0.4241   0.03039   0.01966  -0.0442  0.8572  0.3135  -1.7632   0.0000   0.1267
  -5.000  -0.3861   0.02982   0.01920  -0.0460  0.8521  0.3270  -1.6809   0.0000   0.1113
  -4.750  -0.3728   0.02961   0.01893  -0.0436  0.8387  0.3389  -1.6329   0.0000   0.1139
  -4.500  -0.3410   0.02914   0.01857  -0.0442  0.8312  0.3522  -1.5601   0.0000   0.1008
  -4.250  -0.3043   0.02860   0.01797  -0.0456  0.8260  0.3693  -1.4840   0.0000   0.0795
  -4.000  -0.2903   0.02849   0.01799  -0.0432  0.8129  0.3811  -1.4398   0.0000   0.0808
  -3.750  -0.2601   0.02807   0.01756  -0.0434  0.8048  0.3977  -1.3789   0.0000   0.0619
  -3.500  -0.2235   0.02757   0.01711  -0.0446  0.7992  0.4159  -1.3103   0.0000   0.0277
  -3.250  -0.2083   0.02750   0.01710  -0.0424  0.7864  0.4302  -1.2664   0.0000   0.0240
  -3.000  -0.1799   0.02719   0.01676  -0.0423  0.7779  0.4494  -1.2087   0.0000  -0.0089
  -2.750  -0.1443   0.02676   0.01644  -0.0431  0.7721  0.4690  -1.1479   0.0000  -0.0758
  -2.500  -0.1266   0.02673   0.01648  -0.0412  0.7603  0.4866  -1.1070   0.0000  -0.1038
  -2.250  -0.1004   0.02651   0.01625  -0.0406  0.7507  0.5079  -1.0584   0.0000  -0.1862
  -2.000  -0.0651   0.02613   0.01595  -0.0413  0.7443  0.5299  -1.0005   0.0000  -0.4263
  -1.750  -0.0442   0.02614   0.01604  -0.0398  0.7338  0.5498  -0.9596   0.0000  -0.7049
  -1.500  -0.0207   0.02606   0.01601  -0.0387  0.7236  0.5715  -0.9188   0.0000  -1.7218
  -1.250   0.0123   0.02577   0.01570  -0.0390  0.7167  0.5964  -0.8699   0.0000   3.5489
  -1.000   0.0388   0.02574   0.01573  -0.0382  0.7077  0.6186  -0.8267   0.0000   1.2678
  -0.750   0.0593   0.02585   0.01594  -0.0366  0.6965  0.6393  -0.7917   0.0000   0.8823
  -0.500   0.0916   0.02569   0.01579  -0.0366  0.6890  0.6631  -0.7770   0.0000   0.6556
  -0.250   0.1260   0.02552   0.01559  -0.0370  0.6826  0.6872  -0.8057   0.0000   0.5448
   0.000   0.1391   0.02590   0.01606  -0.0342  0.6702  0.7080  -0.8207   0.0000   0.4950
   0.250   0.1706   0.02590   0.01608  -0.0341  0.6618  0.7295  -0.8496   0.0000   0.4463
   0.500   0.2089   0.02576   0.01590  -0.0349  0.6555  0.7511  -0.8834   0.0000   0.4125
   0.750   0.2234   0.02617   0.01637  -0.0325  0.6445  0.7725  -0.9000   0.0000   0.3895
   1.000   0.2522   0.02637   0.01657  -0.0320  0.6354  0.7926  -0.9280   0.0000   0.3702
   1.250   0.2931   0.02636   0.01650  -0.0334  0.6282  0.8108  -0.9662   0.0000   0.3567
   1.500   0.3201   0.02664   0.01677  -0.0330  0.6195  0.8302  -0.9939   0.0000   0.3449
   1.750   0.3427   0.02702   0.01716  -0.0319  0.6094  0.8500  -1.0184   0.0000   0.3343
   2.000   0.3876   0.02715   0.01723  -0.0343  0.6015  0.8643  -1.0617   0.0000   0.3296
   2.250   0.4299   0.02717   0.01712  -0.0363  0.5946  0.8805  -1.1043   0.0000   0.3252
   2.500   0.4522   0.02779   0.01783  -0.0357  0.5837  0.8981  -1.1301   0.0000   0.3193
   2.750   0.4973   0.02800   0.01798  -0.0387  0.5747  0.9105  -1.1763   0.0000   0.3179
   3.000   0.5426   0.02798   0.01782  -0.0415  0.5677  0.9248  -1.2251   0.0000   0.3163
   3.250   0.5824   0.02852   0.01840  -0.0443  0.5572  0.9371  -1.2672   0.0000   0.3157
   3.500   0.6235   0.02878   0.01864  -0.0471  0.5475  0.9500  -1.3148   0.0000   0.3149
   3.750   0.6707   0.02875   0.01849  -0.0506  0.5398  0.9618  -1.3696   0.0000   0.3147
   4.000   0.7112   0.02911   0.01889  -0.0537  0.5304  0.9728  -1.4178   0.0000   0.3145
   4.250   0.7489   0.02945   0.01924  -0.0563  0.5202  0.9841  -1.4673   0.0000   0.3139
   4.500   0.7955   0.02942   0.01911  -0.0600  0.5118  0.9934  -1.5270   0.0000   0.3140
   4.750   0.8291   0.02965   0.01931  -0.0618  0.5037  1.0000  -1.5762   0.0000   0.3128
   5.000   0.8271   0.03017   0.01989  -0.0574  0.4953  1.0000  -1.5929   0.0000   0.3073
   5.250   0.8358   0.03040   0.02008  -0.0545  0.4878  1.0000  -1.6213   0.0000   0.3026
   5.500   0.8553   0.03039   0.01995  -0.0530  0.4814  1.0000  -1.6615   0.0000   0.2990
   5.750   0.8575   0.03090   0.02046  -0.0491  0.4743  1.0000  -1.6840   0.0000   0.2939
   6.000   0.8517   0.03157   0.02120  -0.0440  0.4663  1.0000  -1.6991   0.0000   0.2878
   6.250   0.8613   0.03187   0.02150  -0.0411  0.4590  1.0000  -1.7319   0.0000   0.2834
   6.500   0.8858   0.03186   0.02135  -0.0403  0.4526  1.0000  -1.7820   0.0000   0.2808
   6.750   0.8832   0.03257   0.02209  -0.0356  0.4454  1.0000  -1.8005   0.0000   0.2752
   7.000   0.8743   0.03344   0.02302  -0.0302  0.4376  1.0000  -1.8136   0.0000   0.2688
   7.250   0.8859   0.03380   0.02333  -0.0276  0.4304  1.0000  -1.8525   0.0000   0.2650
   7.500   0.9166   0.03370   0.02310  -0.0276  0.4240  1.0000  -1.9158   0.0000   0.2638
   7.750   0.9033   0.03477   0.02423  -0.0217  0.4169  1.0000  -1.9234   0.0000   0.2571
   8.000   0.8886   0.03597   0.02549  -0.0158  0.4090  1.0000  -1.9286   0.0000   0.2502
   8.250   0.9041   0.03635   0.02583  -0.0140  0.4018  1.0000  -1.9745   0.0000   0.2475
   8.500   0.9427   0.03602   0.02536  -0.0150  0.3957  1.0000  -2.0557   0.0000   0.2478
   8.750   0.9168   0.03804   0.02752  -0.0087  0.3878  1.0000  -2.0453   0.0000   0.2406
   9.000   0.9094   0.03961   0.02917  -0.0051  0.3796  1.0000  -2.0602   0.0000   0.2360


