xflr5 v6.48

 Calculated polar for: NACA 0015

 1 1 Reynolds number fixed          Mach number fixed

 xtrf =   1.000 (top)        1.000 (bottom)
 Mach =   0.000     Re =     0.080 e 6     Ncrit =   5.000

  alpha     CL        CD       CDp       Cm    Top Xtr Bot Xtr   Cpmin    Chinge    XCp
  -9.00   -0.900000   +0.028710    0.000000    0.000000   0.000000   0.000000
  -8.75   -0.886100   +0.027860    0.000000    0.000000   0.000000   0.000000
  -8.50   -0.873800   +0.027070    0.000000    0.000000   0.000000   0.000000
  -8.25   -0.859100   +0.026370    0.000000    0.000000   0.000000   0.000000
  -8.00   -0.846900   +0.025630    0.000000    0.000000   0.000000   0.000000
  -7.75   -0.832000   +0.024990    0.000000    0.000000   0.000000   0.000000
  -7.50   -0.818600   +0.024330    0.000000    0.000000   0.000000   0.000000
  -7.25   -0.803700   +0.023730    0.000000    0.000000   0.000000   0.000000
  -7.00   -0.788800   +0.023180    0.000000    0.000000   0.000000   0.000000
  -6.75   -0.774300   +0.022620    0.000000    0.000000   0.000000   0.000000
  -6.50   -0.758500   +0.022130    0.000000    0.000000   0.000000   0.000000
  -6.25   -0.742800   +0.021680    0.000000    0.000000   0.000000   0.000000
  -6.00   -0.727200   +0.021220    0.000000    0.000000   0.000000   0.000000
  -5.75   -0.710800   +0.020820    0.000000    0.000000   0.000000   0.000000
  -5.50   -0.693900   +0.020470    0.000000    0.000000   0.000000   0.000000
  -5.25   -0.677200   +0.020120    0.000000    0.000000   0.000000   0.000000
  -5.00   -0.659900   +0.019800    0.000000    0.000000   0.000000   0.000000
  -4.75   -0.642200   +0.019540    0.000000    0.000000   0.000000   0.000000
  -4.50   -0.624000   +0.019310    0.000000    0.000000   0.000000   0.000000
  -4.25   -0.598700   +0.019080    0.000000    0.000000   0.000000   0.000000
  -4.00   -0.560600   +0.018880    0.000000    0.000000   0.000000   0.000000
  -3.75   -0.522600   +0.018690    0.000000    0.000000   0.000000   0.000000
  -3.50   -0.486300   +0.018500    0.000000    0.000000   0.000000   0.000000
  -3.25   -0.447100   +0.018350    0.000000    0.000000   0.000000   0.000000
  -3.00   -0.412800   +0.018180    0.000000    0.000000   0.000000   0.000000
  -2.75   -0.372800   +0.018040    0.000000    0.000000   0.000000   0.000000
  -2.50   -0.339300   +0.017890    0.000000    0.000000   0.000000   0.000000
  -2.25   -0.299600   +0.017750    0.000000    0.000000   0.000000   0.000000
  -2.00   -0.266600   +0.017630    0.000000    0.000000   0.000000   0.000000
  -1.75   -0.229600   +0.017490    0.000000    0.000000   0.000000   0.000000
  -1.50   -0.198200   +0.017380    0.000000    0.000000   0.000000   0.000000
  -1.25   -0.162600   +0.017260    0.000000    0.000000   0.000000   0.000000
  -1.00   -0.131300   +0.017210    0.000000    0.000000   0.000000   0.000000
  -0.75   -0.095200   +0.017100    0.000000    0.000000   0.000000   0.000000
  -0.50   -0.067500   +0.017060    0.000000    0.000000   0.000000   0.000000
  -0.25   -0.030400   +0.017040    0.000000    0.000000   0.000000   0.000000
  +0.00   +0.000000   +0.017030    0.000000    0.000000   0.000000   0.000000
  +0.25   +0.030400   +0.017040    0.000000    0.000000   0.000000   0.000000
  +0.50   +0.067500   +0.017060    0.000000    0.000000   0.000000   0.000000
  +0.75   +0.095200   +0.017100    0.000000    0.000000   0.000000   0.000000
  +1.00   +0.131300   +0.017210    0.000000    0.000000   0.000000   0.000000
  +1.25   +0.162500   +0.017260    0.000000    0.000000   0.000000   0.000000
  +1.50   +0.198200   +0.017380    0.000000    0.000000   0.000000   0.000000
  +1.75   +0.229600   +0.017490    0.000000    0.000000   0.000000   0.000000
  +2.00   +0.266600   +0.017630    0.000000    0.000000   0.000000   0.000000
  +2.25   +0.299600   +0.017750    0.000000    0.000000   0.000000   0.000000
  +2.50   +0.339200   +0.017890    0.000000    0.000000   0.000000   0.000000
  +2.75   +0.372800   +0.018040    0.000000    0.000000   0.000000   0.000000
  +3.00   +0.412800   +0.018180    0.000000    0.000000   0.000000   0.000000
  +3.25   +0.447200   +0.018350    0.000000    0.000000   0.000000   0.000000
  +3.50   +0.486300   +0.018500    0.000000    0.000000   0.000000   0.000000
  +3.75   +0.522600   +0.018690    0.000000    0.000000   0.000000   0.000000
  +4.00   +0.560600   +0.018870    0.000000    0.000000   0.000000   0.000000
  +4.25   +0.598800   +0.019080    0.000000    0.000000   0.000000   0.000000
  +4.50   +0.623900   +0.019310    0.000000    0.000000   0.000000   0.000000
  +4.75   +0.642000   +0.019530    0.000000    0.000000   0.000000   0.000000
  +5.00   +2.746906   +0.019800    0.000000    0.000000   0.000000   0.000000
  +5.25   +0.677000   +0.020120    0.000000    0.000000   0.000000   0.000000
  +5.50   +0.693700   +0.020470    0.000000    0.000000   0.000000   0.000000
  +5.75   +0.710600   +0.020810    0.000000    0.000000   0.000000   0.000000
  +6.00   +0.727100   +0.021210    0.000000    0.000000   0.000000   0.000000
  +6.25   +0.742700   +0.021670    0.000000    0.000000   0.000000   0.000000
  +6.50   +0.758300   +0.022130    0.000000    0.000000   0.000000   0.000000
  +6.75   +0.774200   +0.022620    0.000000    0.000000   0.000000   0.000000
  +7.00   +0.788800   +0.023180    0.000000    0.000000   0.000000   0.000000
  +7.25   +0.803700   +0.023730    0.000000    0.000000   0.000000   0.000000
  +7.50   +0.818500   +0.024320    0.000000    0.000000   0.000000   0.000000
  +7.75   +0.832000   +0.024990    0.000000    0.000000   0.000000   0.000000
  +8.00   +0.846900   +0.025630    0.000000    0.000000   0.000000   0.000000
  +8.25   +0.859200   +0.026370    0.000000    0.000000   0.000000   0.000000
  +8.50   +0.873800   +0.027060    0.000000    0.000000   0.000000   0.000000
  +8.75   +0.886300   +0.027850    0.000000    0.000000   0.000000   0.000000
  +9.00   +0.900200   +0.028710    0.000000    0.000000   0.000000   0.000000
