xflr5 v6.48

 Calculated polar for: NACA 0015

 1 1 Reynolds number fixed          Mach number fixed

 xtrf =   1.000 (top)        1.000 (bottom)
 Mach =   0.000     Re =     0.050 e 6     Ncrit =   5.000

  alpha     CL        CD       CDp       Cm    Top Xtr Bot Xtr   Cpmin    Chinge    XCp
  -9.00   -0.873100   +0.035810    0.000000    0.000000   0.000000   0.000000
  -8.75   -0.860000   +0.034620    0.000000    0.000000   0.000000   0.000000
  -8.50   -0.845700   +0.033640    0.000000    0.000000   0.000000   0.000000
  -8.25   -0.832200   +0.032620    0.000000    0.000000   0.000000   0.000000
  -8.00   -0.819000   +0.031770    0.000000    0.000000   0.000000   0.000000
  -7.75   -0.805000   +0.030870    0.000000    0.000000   0.000000   0.000000
  -7.50   -0.791200   +0.030080    0.000000    0.000000   0.000000   0.000000
  -7.25   -0.777300   +0.029320    0.000000    0.000000   0.000000   0.000000
  -7.00   -0.763000   +0.028590    0.000000    0.000000   0.000000   0.000000
  -6.75   -0.748500   +0.027940    0.000000    0.000000   0.000000   0.000000
  -6.50   -0.733800   +0.027330    0.000000    0.000000   0.000000   0.000000
  -6.25   -0.718600   +0.026740    0.000000    0.000000   0.000000   0.000000
  -6.00   -0.703500   +0.026200    0.000000    0.000000   0.000000   0.000000
  -5.75   -0.687800   +0.025730    0.000000    0.000000   0.000000   0.000000
  -5.50   -0.671600   +0.025270    0.000000    0.000000   0.000000   0.000000
  -5.25   -0.655400   +0.024850    0.000000    0.000000   0.000000   0.000000
  -5.00   -0.639300   +0.024470    0.000000    0.000000   0.000000   0.000000
  -4.75   -0.622000   +0.024150    0.000000    0.000000   0.000000   0.000000
  -4.50   -0.604700   +0.023850    0.000000    0.000000   0.000000   0.000000
  -4.25   -0.587300   +0.000461    0.000000    0.000000   0.000000   0.000000
  -4.00   -0.570200   +0.023320    0.000000    0.000000   0.000000   0.000000
  -3.75   -0.551800   +0.023150    0.000000    0.000000   0.000000   0.000000
  -3.50   -0.533400   +0.023000    0.000000    0.000000   0.000000   0.000000
  -3.25   -0.515100   +0.022870    0.000000    0.000000   0.000000   0.000000
  -3.00   -0.497200   +0.022770    0.000000    0.000000   0.000000   0.000000
  -2.75   -0.476700   +0.022750    0.000000    0.000000   0.000000   0.000000
  -2.50   -0.435500   +0.022840    0.000000    0.000000   0.000000   0.000000
  -2.25   -0.393900   +0.022970    0.000000    0.000000   0.000000   0.000000
  -2.00   -0.352800   +0.023090    0.000000    0.000000   0.000000   0.000000
  -1.75   -0.313600   +0.023210    0.000000    0.000000   0.000000   0.000000
  -1.50   -0.268700   +0.023360    0.000000    0.000000   0.000000   0.000000
  -1.25   -0.230700   +0.023450    0.000000    0.000000   0.000000   0.000000
  -1.00   -0.185500   +0.023630    0.000000    0.000000   0.000000   0.000000
  -0.75   -0.136700   +0.023800    0.000000    0.000000   0.000000   0.000000
  -0.50   -0.094300   +0.023870    0.000000    0.000000   0.000000   0.000000
  -0.25   -0.045700   +0.023900    0.000000    0.000000   0.000000   0.000000
  +0.00   +0.000000   +0.023980    0.000000    0.000000   0.000000   0.000000
  +0.25   +0.045700   +0.023900    0.000000    0.000000   0.000000   0.000000
  +0.50   +0.094300   +0.023870    0.000000    0.000000   0.000000   0.000000
  +0.75   +0.136700   +0.023800    0.000000    0.000000   0.000000   0.000000
  +1.00   +0.185500   +0.023630    0.000000    0.000000   0.000000   0.000000
  +1.25   +0.230700   +0.023450    0.000000    0.000000   0.000000   0.000000
  +1.50   +0.268600   +0.023360    0.000000    0.000000   0.000000   0.000000
  +1.75   +0.313600   +0.023200    0.000000    0.000000   0.000000   0.000000
  +2.00   +0.352800   +0.023090    0.000000    0.000000   0.000000   0.000000
  +2.25   +0.393900   +0.022960    0.000000    0.000000   0.000000   0.000000
  +2.50   +0.435500   +0.022840    0.000000    0.000000   0.000000   0.000000
  +2.75   +0.476700   +0.022750    0.000000    0.000000   0.000000   0.000000
  +3.00   +0.497000   +0.022770    0.000000    0.000000   0.000000   0.000000
  +3.25   +0.515000   +0.022870    0.000000    0.000000   0.000000   0.000000
  +3.50   +0.533300   +0.022990    0.000000    0.000000   0.000000   0.000000
  +3.75   +0.551700   +0.023140    0.000000    0.000000   0.000000   0.000000
  +4.00   +0.570000   +0.023320    0.000000    0.000000   0.000000   0.000000
  +4.25   +0.587100   +0.023570    0.000000    0.000000   0.000000   0.000000
  +4.50   +0.604500   +0.023850    0.000000    0.000000   0.000000   0.000000
  +4.75   +0.621900   +0.024150    0.000000    0.000000   0.000000   0.000000
  +5.00   +0.639200   +0.024460    0.000000    0.000000   0.000000   0.000000
  +5.25   +0.655300   +0.024850    0.000000    0.000000   0.000000   0.000000
  +5.50   +0.671500   +0.025270    0.000000    0.000000   0.000000   0.000000
  +5.75   +0.687700   +0.025730    0.000000    0.000000   0.000000   0.000000
  +6.00   +0.703400   +0.026200    0.000000    0.000000   0.000000   0.000000
  +6.25   +0.718500   +0.026730    0.000000    0.000000   0.000000   0.000000
  +6.50   +0.733700   +0.027320    0.000000    0.000000   0.000000   0.000000
  +6.75   +0.748500   +0.027940    0.000000    0.000000   0.000000   0.000000
  +7.00   +0.763000   +0.028580    0.000000    0.000000   0.000000   0.000000
  +7.25   +0.777200   +0.029310    0.000000    0.000000   0.000000   0.000000
  +7.50   +0.791200   +0.030070    0.000000    0.000000   0.000000   0.000000
  +7.75   +0.805000   +0.030860    0.000000    0.000000   0.000000   0.000000
  +8.00   +0.819100   +0.031770    0.000000    0.000000   0.000000   0.000000
  +8.25   +0.832300   +0.032610    0.000000    0.000000   0.000000   0.000000
  +8.50   +0.845800   +0.033640    0.000000    0.000000   0.000000   0.000000
  +8.75   +0.860200   +0.034610    0.000000    0.000000   0.000000   0.000000
  +9.00   +0.873300   +0.035800    0.000000    0.000000   0.000000   0.000000
