xflr5 v6.48

 Calculated polar for: NACA 0015

 1 1 Reynolds number fixed          Mach number fixed         

 xtrf =   1.000 (top)        1.000 (bottom)
 Mach =   0.000     Re =     0.080 e 6     Ncrit =   5.000

  alpha     CL        CD       CDp       Cm    Top Xtr Bot Xtr   Cpmin    Chinge    XCp    
 ------- -------- --------- --------- -------- ------- ------- -------- --------- ---------
  -9.000  -0.9000   0.02871   0.01869  -0.0161  1.0000  0.1331  -3.2013   0.0000   0.2197
  -8.750  -0.8861   0.02786   0.01782  -0.0141  1.0000  0.1400  -3.1024   0.0000   0.2220
  -8.500  -0.8738   0.02707   0.01708  -0.0119  1.0000  0.1478  -3.0044   0.0000   0.2246
  -8.250  -0.8591   0.02637   0.01633  -0.0099  1.0000  0.1576  -2.9035   0.0000   0.2270
  -8.000  -0.8469   0.02563   0.01569  -0.0076  1.0000  0.1672  -2.8147   0.0000   0.2299
  -7.750  -0.8320   0.02499   0.01501  -0.0055  1.0000  0.1782  -2.7280   0.0000   0.2324
  -7.500  -0.8186   0.02433   0.01443  -0.0033  1.0000  0.1893  -2.6430   0.0000   0.2353
  -7.250  -0.8037   0.02373   0.01380  -0.0013  1.0000  0.2019  -2.5562   0.0000   0.2381
  -7.000  -0.7888   0.02318   0.01327   0.0008  1.0000  0.2162  -2.4694   0.0000   0.2410
  -6.750  -0.7743   0.02262   0.01281   0.0029  1.0000  0.2302  -2.3836   0.0000   0.2440
  -6.500  -0.7585   0.02213   0.01234   0.0049  1.0000  0.2458  -2.2964   0.0000   0.2469
  -6.250  -0.7428   0.02168   0.01193   0.0069  1.0000  0.2628  -2.2099   0.0000   0.2500
  -6.000  -0.7272   0.02122   0.01158   0.0088  1.0000  0.2796  -2.1239   0.0000   0.2532
  -5.750  -0.7108   0.02082   0.01123   0.0107  1.0000  0.2973  -2.0374   0.0000   0.2563
  -5.500  -0.6939   0.02047   0.01091   0.0125  1.0000  0.3167  -1.9553   0.0000   0.2595
  -5.250  -0.6772   0.02012   0.01065   0.0143  1.0000  0.3356  -1.8805   0.0000   0.2629
  -5.000  -0.6599   0.01980   0.01038   0.0160  1.0000  0.3549  -1.8056   0.0000   0.2663
  -4.750  -0.6422   0.01954   0.01017   0.0176  1.0000  0.3750  -1.7309   0.0000   0.2697
  -4.500  -0.6240   0.01931   0.00998   0.0191  1.0000  0.3958  -1.6564   0.0000   0.2731
  -4.250  -0.5987   0.01908   0.00984   0.0192  0.9973  0.4188  -1.5706   0.0000   0.2748
  -4.000  -0.5606   0.01888   0.00973   0.0168  0.9898  0.4450  -1.4701   0.0000   0.2729
  -3.750  -0.5226   0.01869   0.00964   0.0146  0.9820  0.4711  -1.3787   0.0000   0.2709
  -3.500  -0.4863   0.01850   0.00955   0.0128  0.9730  0.4963  -1.2912   0.0000   0.2693
  -3.250  -0.4471   0.01835   0.00944   0.0104  0.9650  0.5221  -1.2028   0.0000   0.2665
  -3.000  -0.4128   0.01818   0.00935   0.0092  0.9547  0.5464  -1.1297   0.0000   0.2655
  -2.750  -0.3728   0.01804   0.00928   0.0068  0.9465  0.5719  -1.0510   0.0000   0.2616
  -2.500  -0.3393   0.01789   0.00919   0.0058  0.9354  0.5963  -0.9861   0.0000   0.2606
  -2.250  -0.2996   0.01775   0.00914   0.0038  0.9266  0.6205  -0.9176   0.0000   0.2561
  -2.000  -0.2666   0.01763   0.00912   0.0032  0.9149  0.6428  -0.8609   0.0000   0.2555
  -1.750  -0.2296   0.01749   0.00906   0.0019  0.9043  0.6654  -0.8033   0.0000   0.2517
  -1.500  -0.1982   0.01738   0.00898   0.0016  0.8913  0.6876  -0.7556   0.0000   0.2518
  -1.250  -0.1626   0.01726   0.00890   0.0007  0.8797  0.7098  -0.7062   0.0000   0.2481
  -1.000  -0.1313   0.01721   0.00894   0.0007  0.8653  0.7293  -0.6643   0.0000   0.2494
  -0.750  -0.0952   0.01710   0.00886  -0.0001  0.8529  0.7494  -0.6211   0.0000   0.2429
  -0.500  -0.0675   0.01706   0.00883   0.0005  0.8360  0.7701  -0.5864   0.0000   0.2518
  -0.250  -0.0304   0.01704   0.00884  -0.0002  0.8223  0.7867  -0.5475   0.0000   0.2356
   0.000   0.0000   0.01703   0.00886   0.0000  0.8043  0.8043  -0.5147   0.0000  -1.2291
   0.250   0.0304   0.01704   0.00884   0.0002  0.7867  0.8223  -0.5475   0.0000   0.2356
   0.500   0.0675   0.01706   0.00883  -0.0005  0.7701  0.8360  -0.5864   0.0000   0.2518
   0.750   0.0952   0.01710   0.00886   0.0001  0.7494  0.8529  -0.6211   0.0000   0.2429
   1.000   0.1313   0.01721   0.00893  -0.0007  0.7293  0.8653  -0.6643   0.0000   0.2494
   1.250   0.1625   0.01726   0.00890  -0.0007  0.7098  0.8797  -0.7062   0.0000   0.2481
   1.500   0.1982   0.01738   0.00897  -0.0016  0.6876  0.8914  -0.7556   0.0000   0.2518
   1.750   0.2296   0.01749   0.00906  -0.0019  0.6654  0.9044  -0.8033   0.0000   0.2517
   2.000   0.2666   0.01763   0.00912  -0.0032  0.6428  0.9149  -0.8608   0.0000   0.2554
   2.250   0.2996   0.01775   0.00914  -0.0038  0.6205  0.9266  -0.9176   0.0000   0.2561
   2.500   0.3392   0.01789   0.00919  -0.0058  0.5963  0.9354  -0.9860   0.0000   0.2606
   2.750   0.3728   0.01804   0.00927  -0.0068  0.5719  0.9465  -1.0510   0.0000   0.2616
   3.000   0.4128   0.01818   0.00935  -0.0091  0.5465  0.9548  -1.1297   0.0000   0.2655
   3.250   0.4472   0.01835   0.00943  -0.0104  0.5221  0.9651  -1.2028   0.0000   0.2665
   3.500   0.4863   0.01850   0.00954  -0.0128  0.4963  0.9731  -1.2911   0.0000   0.2693
   3.750   0.5226   0.01869   0.00964  -0.0146  0.4711  0.9820  -1.3787   0.0000   0.2709
   4.000   0.5606   0.01887   0.00973  -0.0168  0.4450  0.9899  -1.4701   0.0000   0.2729
   4.250   0.5988   0.01908   0.00984  -0.0192  0.4188  0.9974  -1.5707   0.0000   0.2748
   4.500   0.6239   0.01931   0.00997  -0.0191  0.3959  1.0000  -1.6561   0.0000   0.2731
   4.750   0.6420   0.01953   0.01016  -0.0176  0.3751  1.0000  -1.7306   0.0000   0.2696
   5.000   0.6598   0.01980   0.01037  -0.0160  0.3550  1.0000  -1.8053   0.0000   0.2662
   5.250   0.6770   0.02012   0.01065  -0.0142  0.3357  1.0000  -1.8802   0.0000   0.2628
   5.500   0.6937   0.02047   0.01090  -0.0124  0.3167  1.0000  -1.9550   0.0000   0.2595
   5.750   0.7106   0.02081   0.01123  -0.0107  0.2973  1.0000  -2.0371   0.0000   0.2563
   6.000   0.7271   0.02121   0.01157  -0.0088  0.2796  1.0000  -2.1236   0.0000   0.2532
   6.250   0.7427   0.02167   0.01193  -0.0068  0.2629  1.0000  -2.2096   0.0000   0.2500
   6.500   0.7583   0.02213   0.01234  -0.0049  0.2459  1.0000  -2.2962   0.0000   0.2469
   6.750   0.7742   0.02262   0.01280  -0.0029  0.2303  1.0000  -2.3834   0.0000   0.2440
   7.000   0.7888   0.02318   0.01327  -0.0008  0.2162  1.0000  -2.4693   0.0000   0.2409
   7.250   0.8037   0.02373   0.01379   0.0013  0.2019  1.0000  -2.5561   0.0000   0.2381
   7.500   0.8185   0.02432   0.01443   0.0033  0.1893  1.0000  -2.6429   0.0000   0.2353
   7.750   0.8320   0.02499   0.01501   0.0055  0.1782  1.0000  -2.7279   0.0000   0.2324
   8.000   0.8469   0.02563   0.01568   0.0076  0.1672  1.0000  -2.8147   0.0000   0.2299
   8.250   0.8592   0.02637   0.01632   0.0099  0.1576  1.0000  -2.9036   0.0000   0.2270
   8.500   0.8738   0.02706   0.01708   0.0119  0.1478  1.0000  -3.0046   0.0000   0.2246
   8.750   0.8863   0.02785   0.01781   0.0141  0.1400  1.0000  -3.1027   0.0000   0.2220
   9.000   0.9002   0.02871   0.01869   0.0161  0.1331  1.0000  -3.2018   0.0000   0.2198


