xflr5 v6.48

 Calculated polar for: NACA 0015

 1 1 Reynolds number fixed          Mach number fixed

 xtrf =   1.000 (top)        1.000 (bottom)
 Mach =   0.000     Re =     0.060 e 6     Ncrit =   5.000

  alpha     CL        CD       CDp       Cm    Top Xtr Bot Xtr   Cpmin    Chinge    XCp
  -9.00   -0.882500   +0.032670    0.000000    0.000000   0.000000   0.000000
  -8.75   -0.869700   +0.031690    0.000000    0.000000   0.000000   0.000000
  -8.50   -0.856600   +0.030810    0.000000    0.000000   0.000000   0.000000
  -8.25   -0.842600   +0.029900    0.000000    0.000000   0.000000   0.000000
  -8.00   -0.829000   +0.029090    0.000000    0.000000   0.000000   0.000000
  -7.75   -0.815500   +0.028300    0.000000    0.000000   0.000000   0.000000
  -7.50   -0.801400   +0.027590    0.000000    0.000000   0.000000   0.000000
  -7.25   -0.787700   +0.026870    0.000000    0.000000   0.000000   0.000000
  -7.00   -0.773000   +0.026220    0.000000    0.000000   0.000000   0.000000
  -6.75   -0.758400   +0.025620    0.000000    0.000000   0.000000   0.000000
  -6.50   -0.743700   +0.025040    0.000000    0.000000   0.000000   0.000000
  -6.25   -0.728300   +0.024500    0.000000    0.000000   0.000000   0.000000
  -6.00   -0.712700   +0.024030    0.000000    0.000000   0.000000   0.000000
  -5.75   -0.697100   +0.023560    0.000000    0.000000   0.000000   0.000000
  -5.50   -0.681000   +0.023140    0.000000    0.000000   0.000000   0.000000
  -5.25   -0.664500   +0.022760    0.000000    0.000000   0.000000   0.000000
  -5.00   -0.647800   +0.022420    0.000000    0.000000   0.000000   0.000000
  -4.75   -0.630700   +0.022110    0.000000    0.000000   0.000000   0.000000
  -4.50   -0.613200   +0.021830    0.000000    0.000000   0.000000   0.000000
  -4.25   -0.595500   +0.021580    0.000000    0.000000   0.000000   0.000000
  -4.00   -0.577700   +0.021370    0.000000    0.000000   0.000000   0.000000
  -3.75   -0.559400   +0.021200    0.000000    0.000000   0.000000   0.000000
  -3.50   -0.540700   +0.021070    0.000000    0.000000   0.000000   0.000000
  -3.25   -0.508800   +0.020990    0.000000    0.000000   0.000000   0.000000
  -3.00   -0.469000   +0.020930    0.000000    0.000000   0.000000   0.000000
  -2.75   -0.429700   +0.020890    0.000000    0.000000   0.000000   0.000000
  -2.50   -0.389100   +0.020870    0.000000    0.000000   0.000000   0.000000
  -2.25   -0.352900   +0.020820    0.000000    0.000000   0.000000   0.000000
  -2.00   -0.308900   +0.020860    0.000000    0.000000   0.000000   0.000000
  -1.75   -0.274000   +0.020860    0.000000    0.000000   0.000000   0.000000
  -1.50   -0.229300   +0.020890    0.000000    0.000000   0.000000   0.000000
  -1.25   -0.194600   +0.020870    0.000000    0.000000   0.000000   0.000000
  -1.00   -0.155400   +0.020860    0.000000    0.000000   0.000000   0.000000
  -0.75   -0.115700   +0.020920    0.000000    0.000000   0.000000   0.000000
  -0.50   -0.077500   +0.020930    0.000000    0.000000   0.000000   0.000000
  -0.25   -0.041100   +0.020870    0.000000    0.000000   0.000000   0.000000
  +0.00   -0.000000   +0.020970    0.000000    0.000000   0.000000   0.000000
  +0.25   +0.041100   +0.020870    0.000000    0.000000   0.000000   0.000000
  +0.50   +0.077500   +0.020930    0.000000    0.000000   0.000000   0.000000
  +0.75   +0.115700   -0.013852    0.000000    0.000000   0.000000   0.000000
  +1.00   +0.155400   +0.020860    0.000000    0.000000   0.000000   0.000000
  +1.25   +0.194600   +0.020870    0.000000    0.000000   0.000000   0.000000
  +1.50   +0.229200   +0.020880    0.000000    0.000000   0.000000   0.000000
  +1.75   +0.274000   +0.020860    0.000000    0.000000   0.000000   0.000000
  +2.00   +0.308900   +0.020850    0.000000    0.000000   0.000000   0.000000
  +2.25   +0.352800   +0.020820    0.000000    0.000000   0.000000   0.000000
  +2.50   +0.389100   +0.020860    0.000000    0.000000   0.000000   0.000000
  +2.75   +0.429700   +0.020880    0.000000    0.000000   0.000000   0.000000
  +3.00   +0.469000   +0.020920    0.000000    0.000000   0.000000   0.000000
  +3.25   +0.508800   +0.020980    0.000000    0.000000   0.000000   0.000000
  +3.50   +0.540500   +0.021060    0.000000    0.000000   0.000000   0.000000
  +3.75   +0.559300   +0.021200    0.000000    0.000000   0.000000   0.000000
  +4.00   +0.577600   +0.021370    0.000000    0.000000   0.000000   0.000000
  +4.25   +0.595300   +0.021580    0.000000    0.000000   0.000000   0.000000
  +4.50   +0.613000   +0.021820    0.000000    0.000000   0.000000   0.000000
  +4.75   +0.630600   +0.022100    0.000000    0.000000   0.000000   0.000000
  +5.00   +0.647600   +0.022420    0.000000    0.000000   0.000000   0.000000
  +5.25   +0.664300   +0.022760    0.000000    0.000000   0.000000   0.000000
  +5.50   +0.680900   +0.023140    0.000000    0.000000   0.000000   0.000000
  +5.75   +0.697000   +0.023560    0.000000    0.000000   0.000000   0.000000
  +6.00   +0.712600   +0.024020    0.000000    0.000000   0.000000   0.000000
  +6.25   +0.728200   +0.024500    0.000000    0.000000   0.000000   0.000000
  +6.50   +0.743600   +0.025030    0.000000    0.000000   0.000000   0.000000
  +6.75   +0.758300   +0.025620    0.000000    0.000000   0.000000   0.000000
  +7.00   +0.772900   +0.026210    0.000000    0.000000   0.000000   0.000000
  +7.25   +0.787700   +0.026870    0.000000    0.000000   0.000000   0.000000
  +7.50   +0.801400   +0.027580    0.000000    0.000000   0.000000   0.000000
  +7.75   +0.815500   +0.028290    0.000000    0.000000   0.000000   0.000000
  +8.00   +0.829100   +0.029090    0.000000    0.000000   0.000000   0.000000
  +8.25   +0.842700   +0.029890    0.000000    0.000000   0.000000   0.000000
  +8.50   +0.856700   +0.030800    0.000000    0.000000   0.000000   0.000000
  +8.75   +0.869900   +0.031680    0.000000    0.000000   0.000000   0.000000
  +9.00   +0.882700   +0.032670    0.000000    0.000000   0.000000   0.000000
