xflr5 v6.48

 Calculated polar for: NACA 0015

 1 1 Reynolds number fixed          Mach number fixed

 xtrf =   1.000 (top)        1.000 (bottom)
 Mach =   0.000     Re =     0.070 e 6     Ncrit =   5.000

  alpha     CL        CD       CDp       Cm    Top Xtr Bot Xtr   Cpmin    Chinge    XCp
  -9.00   -0.891300   +0.030380    0.000000    0.000000   0.000000   0.000000
  -8.75   -0.878700   +0.029530    0.000000    0.000000   0.000000   0.000000
  -8.50   -0.864800   +0.028690    0.000000    0.000000   0.000000   0.000000
  -8.25   -0.852500   +0.027900    0.000000    0.000000   0.000000   0.000000
  -8.00   -0.838000   +0.027150    0.000000    0.000000   0.000000   0.000000
  -7.75   -0.824900   +0.026420    0.000000    0.000000   0.000000   0.000000
  -7.50   -0.810500   +0.025730    0.000000    0.000000   0.000000   0.000000
  -7.25   -0.796300   +0.025110    0.000000    0.000000   0.000000   0.000000
  -7.00   -0.782100   +0.024480    0.000000    0.000000   0.000000   0.000000
  -6.75   -0.766600   +0.023930    0.000000    0.000000   0.000000   0.000000
  -6.50   -0.751800   +0.023400    0.000000    0.000000   0.000000   0.000000
  -6.25   -0.736600   +0.022890    0.000000    0.000000   0.000000   0.000000
  -6.00   -0.720600   +0.022430    0.000000    0.000000   0.000000   0.000000
  -5.75   -0.704400   +0.022030    0.000000    0.000000   0.000000   0.000000
  -5.50   -0.688400   +0.021610    0.000000    0.000000   0.000000   0.000000
  -5.25   -0.671600   +0.021250    0.000000    0.000000   0.000000   0.000000
  -5.00   -0.654500   +0.020930    0.000000    0.000000   0.000000   0.000000
  -4.75   -0.637100   +0.020650    0.000000    0.000000   0.000000   0.000000
  -4.50   -0.619500   +0.020390    0.000000    0.000000   0.000000   0.000000
  -4.25   -0.601500   +0.020160    0.000000    0.000000   0.000000   0.000000
  -4.00   -0.583100   +0.019970    0.000000    0.000000   0.000000   0.000000
  -3.75   -0.550800   +0.019820    0.000000    0.000000   0.000000   0.000000
  -3.50   -0.512600   +0.019670    0.000000    0.000000   0.000000   0.000000
  -3.25   -0.473400   +0.019560    0.000000    0.000000   0.000000   0.000000
  -3.00   -0.436000   +0.019430    0.000000    0.000000   0.000000   0.000000
  -2.75   -0.398500   +0.019330    0.000000    0.000000   0.000000   0.000000
  -2.50   -0.359800   +0.019240    0.000000    0.000000   0.000000   0.000000
  -2.25   -0.323300   +0.019150    0.000000    0.000000   0.000000   0.000000
  -2.00   -0.283600   +0.019060    0.000000    0.000000   0.000000   0.000000
  -1.75   -0.248300   +0.018970    0.000000    0.000000   0.000000   0.000000
  -1.50   -0.209600   +0.018910    0.000000    0.000000   0.000000   0.000000
  -1.25   -0.175100   +0.018870    0.000000    0.000000   0.000000   0.000000
  -1.00   -0.138000   +0.018790    0.000000    0.000000   0.000000   0.000000
  -0.75   -0.106900   +0.018750    0.000000    0.000000   0.000000   0.000000
  -0.50   -0.066200   +0.018720    0.000000    0.000000   0.000000   0.000000
  -0.25   -0.035800   +0.018720    0.000000    0.000000   0.000000   0.000000
  +0.00   +0.000000   +0.018680    0.000000    0.000000   0.000000   0.000000
  +0.25   +0.035800   +0.018720    0.000000    0.000000   0.000000   0.000000
  +0.50   +0.066200   +0.018720    0.000000    0.000000   0.000000   0.000000
  +0.75   +0.106900   +0.018750    0.000000    0.000000   0.000000   0.000000
  +1.00   +0.138000   +0.018780    0.000000    0.000000   0.000000   0.000000
  +1.25   +0.175100   +0.018870    0.000000    0.000000   0.000000   0.000000
  +1.50   +0.209600   +0.018910    0.000000    0.000000   0.000000   0.000000
  +1.75   +0.248300   +0.018970    0.000000    0.000000   0.000000   0.000000
  +2.00   +0.283500   +0.019060    0.000000    0.000000   0.000000   0.000000
  +2.25   +0.323200   +0.019150    0.000000    0.000000   0.000000   0.000000
  +2.50   +0.359800   +0.019240    0.000000    0.000000   0.000000   0.000000
  +2.75   +0.398500   +0.019330    0.000000    0.000000   0.000000   0.000000
  +3.00   +1.968966   +0.019430    0.000000    0.000000   0.000000   0.000000
  +3.25   +0.473400   +0.019550    0.000000    0.000000   0.000000   0.000000
  +3.50   +0.512600   +0.019670    0.000000    0.000000   0.000000   0.000000
  +3.75   +0.550800   +0.019810    0.000000    0.000000   0.000000   0.000000
  +4.00   +0.582900   +0.019970    0.000000    0.000000   0.000000   0.000000
  +4.25   +0.601300   +0.020150    0.000000    0.000000   0.000000   0.000000
  +4.50   +0.619400   +0.020380    0.000000    0.000000   0.000000   0.000000
  +4.75   +0.636900   +0.020650    0.000000    0.000000   0.000000   0.000000
  +5.00   +0.654300   +0.020930    0.000000    0.000000   0.000000   0.000000
  +5.25   +0.671500   +0.021250    0.000000    0.000000   0.000000   0.000000
  +5.50   +0.688200   +0.021610    0.000000    0.000000   0.000000   0.000000
  +5.75   +0.704300   +0.022020    0.000000    0.000000   0.000000   0.000000
  +6.00   +0.720500   +0.022430    0.000000    0.000000   0.000000   0.000000
  +6.25   +0.736500   +0.022880    0.000000    0.000000   0.000000   0.000000
  +6.50   +0.751700   +0.023390    0.000000    0.000000   0.000000   0.000000
  +6.75   +0.766600   +0.023920    0.000000    0.000000   0.000000   0.000000
  +7.00   +0.782000   +0.024480    0.000000    0.000000   0.000000   0.000000
  +7.25   +0.796200   +0.025110    0.000000    0.000000   0.000000   0.000000
  +7.50   +0.810500   +0.025730    0.000000    0.000000   0.000000   0.000000
  +7.75   +0.824800   +0.026410    0.000000    0.000000   0.000000   0.000000
  +8.00   +0.838000   +0.027140    0.000000    0.000000   0.000000   0.000000
  +8.25   +0.852500   +0.027900    0.000000    0.000000   0.000000   0.000000
  +8.50   +0.864900   +0.028690    0.000000    0.000000   0.000000   0.000000
  +8.75   +0.878900   +0.029530    0.000000    0.000000   0.000000   0.000000
  +9.00   +0.891500   +0.030380    0.000000    0.000000   0.000000   0.000000
