xflr5 v6.48

 Calculated polar for: NACA 0015

 1 1 Reynolds number fixed          Mach number fixed

 xtrf =   1.000 (top)        1.000 (bottom)
 Mach =   0.000     Re =     0.090 e 6     Ncrit =   5.000

  alpha     CL        CD       CDp       Cm    Top Xtr Bot Xtr   Cpmin    Chinge    XCp
  -9.00   -0.907600   +0.027280    0.000000    0.000000   0.000000   0.000000
  -8.75   -0.893900   +0.026540    0.000000    0.000000   0.000000   0.000000
  -8.50   -0.880000   +0.025800    0.000000    0.000000   0.000000   0.000000
  -8.25   -0.867400   +0.025090    0.000000    0.000000   0.000000   0.000000
  -8.00   -0.852500   +0.024470    0.000000    0.000000   0.000000   0.000000
  -7.75   -0.839600   +0.023810    0.000000    0.000000   0.000000   0.000000
  -7.50   -0.824500   +0.023230    0.000000    0.000000   0.000000   0.000000
  -7.25   -0.810100   +0.022650    0.000000    0.000000   0.000000   0.000000
  -7.00   -0.795200   +0.022100    0.000000    0.000000   0.000000   0.000000
  -6.75   -0.779200   +0.021640    0.000000    0.000000   0.000000   0.000000
  -6.50   -0.764500   +0.021120    0.000000    0.000000   0.000000   0.000000
  -6.25   -0.748500   +0.020680    0.000000    0.000000   0.000000   0.000000
  -6.00   -0.731800   +0.020300    0.000000    0.000000   0.000000   0.000000
  -5.75   -0.715800   +0.019890    0.000000    0.000000   0.000000   0.000000
  -5.50   -0.699000   +0.019530    0.000000    0.000000   0.000000   0.000000
  -5.25   -0.681600   +0.019220    0.000000    0.000000   0.000000   0.000000
  -5.00   -0.663800   +0.018950    0.000000    0.000000   0.000000   0.000000
  -4.75   -0.646200   +0.018670    0.000000    0.000000   0.000000   0.000000
  -4.50   -0.612200   +0.018410    0.000000    0.000000   0.000000   0.000000
  -4.25   -0.575400   +0.018150    0.000000    0.000000   0.000000   0.000000
  -4.00   -0.536800   +0.017940    0.000000    0.000000   0.000000   0.000000
  -3.75   -0.502300   +0.017710    0.000000    0.000000   0.000000   0.000000
  -3.50   -0.462800   +0.017530    0.000000    0.000000   0.000000   0.000000
  -3.25   -0.430000   +0.017330    0.000000    0.000000   0.000000   0.000000
  -3.00   -0.390300   +0.017150    0.000000    0.000000   0.000000   0.000000
  -2.75   -0.357400   +0.016960    0.000000    0.000000   0.000000   0.000000
  -2.50   -0.319800   +0.016770    0.000000    0.000000   0.000000   0.000000
  -2.25   -0.287300   +0.016610    0.000000    0.000000   0.000000   0.000000
  -2.00   -0.252800   +0.016440    0.000000    0.000000   0.000000   0.000000
  -1.75   -0.221000   +0.016300    0.000000    0.000000   0.000000   0.000000
  -1.50   -0.187300   +0.016150    0.000000    0.000000   0.000000   0.000000
  -1.25   -0.156400   +0.016040    0.000000    0.000000   0.000000   0.000000
  -1.00   -0.123600   +0.015910    0.000000    0.000000   0.000000   0.000000
  -0.75   -0.093700   +0.015860    0.000000    0.000000   0.000000   0.000000
  -0.50   -0.059200   +0.015770    0.000000    0.000000   0.000000   0.000000
  -0.25   -0.032000   +0.015740    0.000000    0.000000   0.000000   0.000000
  +0.00   -0.000000   +0.015740    0.000000    0.000000   0.000000   0.000000
  +0.25   +0.032000   +0.015740    0.000000    0.000000   0.000000   0.000000
  +0.50   +0.059200   +0.015770    0.000000    0.000000   0.000000   0.000000
  +0.75   +0.093700   +0.015860    0.000000    0.000000   0.000000   0.000000
  +1.00   +0.123600   +0.015910    0.000000    0.000000   0.000000   0.000000
  +1.25   +0.156400   +0.016040    0.000000    0.000000   0.000000   0.000000
  +1.50   +0.187300   +0.016150    0.000000    0.000000   0.000000   0.000000
  +1.75   +0.221000   +0.016300    0.000000    0.000000   0.000000   0.000000
  +2.00   +0.252700   +0.016440    0.000000    0.000000   0.000000   0.000000
  +2.25   +0.287300   +0.016610    0.000000    0.000000   0.000000   0.000000
  +2.50   +0.319800   +0.016770    0.000000    0.000000   0.000000   0.000000
  +2.75   +0.357300   +0.016960    0.000000    0.000000   0.000000   0.000000
  +3.00   +0.390300   +0.017140    0.000000    0.000000   0.000000   0.000000
  +3.25   +0.429900   +0.017330    0.000000    0.000000   0.000000   0.000000
  +3.50   +0.462800   +0.017520    0.000000    0.000000   0.000000   0.000000
  +3.75   +0.502300   +0.017710    0.000000    0.000000   0.000000   0.000000
  +4.00   +0.536900   +0.017940    0.000000    0.000000   0.000000   0.000000
  +4.25   +0.575400   +0.018150    0.000000    0.000000   0.000000   0.000000
  +4.50   +0.612300   +0.018400    0.000000    0.000000   0.000000   0.000000
  +4.75   +0.646000   +0.018660    0.000000    0.000000   0.000000   0.000000
  +5.00   +0.663600   +0.018940    0.000000    0.000000   0.000000   0.000000
  +5.25   +0.681400   +0.019220    0.000000    0.000000   0.000000   0.000000
  +5.50   +0.698800   +0.019530    0.000000    0.000000   0.000000   0.000000
  +5.75   +0.715600   +0.019890    0.000000    0.000000   0.000000   0.000000
  +6.00   +0.731600   +0.020300    0.000000    0.000000   0.000000   0.000000
  +6.25   +0.748300   +0.020680    0.000000    0.000000   0.000000   0.000000
  +6.50   +0.764300   +0.021120    0.000000    0.000000   0.000000   0.000000
  +6.75   +0.779100   +0.021640    0.000000    0.000000   0.000000   0.000000
  +7.00   +0.795100   +0.022100    0.000000    0.000000   0.000000   0.000000
  +7.25   +0.810100   +0.022640    0.000000    0.000000   0.000000   0.000000
  +7.50   +0.824400   +0.023220    0.000000    0.000000   0.000000   0.000000
  +7.75   +0.839500   +0.023800    0.000000    0.000000   0.000000   0.000000
  +8.00   +0.852500   +0.024460    0.000000    0.000000   0.000000   0.000000
  +8.25   +0.867400   +0.025080    0.000000    0.000000   0.000000   0.000000
  +8.50   +0.880100   +0.025800    0.000000    0.000000   0.000000   0.000000
  +8.75   +0.894000   +0.026540    0.000000    0.000000   0.000000   0.000000
  +9.00   +0.907800   +0.027270    0.000000    0.000000   0.000000   0.000000
