xflr5 v6.48

 Calculated polar for: NACA 0015

 1 1 Reynolds number fixed          Mach number fixed         

 xtrf =   1.000 (top)        1.000 (bottom)
 Mach =   0.000     Re =     0.100 e 6     Ncrit =   5.000

  alpha     CL        CD       CDp       Cm    Top Xtr Bot Xtr   Cpmin    Chinge    XCp    
 ------- -------- --------- --------- -------- ------- ------- -------- --------- ---------
  -8.750  -0.9006   0.02541   0.01588  -0.0120  1.0000  0.1262  -3.1694   0.0000   0.2246
  -8.500  -0.8865   0.02476   0.01520  -0.0099  1.0000  0.1338  -3.0659   0.0000   0.2271
  -8.250  -0.8729   0.02408   0.01454  -0.0077  1.0000  0.1411  -2.9649   0.0000   0.2297
  -8.000  -0.8593   0.02345   0.01394  -0.0055  1.0000  0.1499  -2.8661   0.0000   0.2325
  -7.750  -0.8445   0.02287   0.01336  -0.0034  1.0000  0.1598  -2.7770   0.0000   0.2351
  -7.500  -0.8303   0.02230   0.01284  -0.0013  1.0000  0.1709  -2.6885   0.0000   0.2379
  -7.250  -0.8154   0.02176   0.01228   0.0008  1.0000  0.1822  -2.5999   0.0000   0.2407
  -7.000  -0.7998   0.02127   0.01181   0.0028  1.0000  0.1950  -2.5103   0.0000   0.2435
  -6.750  -0.7849   0.02076   0.01139   0.0049  1.0000  0.2081  -2.4226   0.0000   0.2465
  -6.500  -0.7688   0.02033   0.01098   0.0068  1.0000  0.2228  -2.3332   0.0000   0.2494
  -6.250  -0.7527   0.01991   0.01062   0.0088  1.0000  0.2387  -2.2447   0.0000   0.2524
  -6.000  -0.7367   0.01949   0.01029   0.0107  1.0000  0.2546  -2.1570   0.0000   0.2555
  -5.750  -0.7198   0.01913   0.00998   0.0124  1.0000  0.2717  -2.0685   0.0000   0.2586
  -5.500  -0.7023   0.01882   0.00970   0.0141  1.0000  0.2899  -1.9808   0.0000   0.2616
  -5.250  -0.6853   0.01849   0.00948   0.0158  1.0000  0.3081  -1.9048   0.0000   0.2649
  -5.000  -0.6662   0.01820   0.00922   0.0171  0.9995  0.3274  -1.8260   0.0000   0.2677
  -4.750  -0.6288   0.01791   0.00901   0.0148  0.9934  0.3522  -1.7174   0.0000   0.2657
  -4.500  -0.5930   0.01762   0.00881   0.0128  0.9862  0.3772  -1.6131   0.0000   0.2640
  -4.250  -0.5545   0.01738   0.00865   0.0104  0.9800  0.4026  -1.5062   0.0000   0.2612
  -4.000  -0.5210   0.01713   0.00847   0.0091  0.9711  0.4270  -1.4195   0.0000   0.2600
  -3.750  -0.4820   0.01691   0.00833   0.0067  0.9645  0.4525  -1.3274   0.0000   0.2566
  -3.500  -0.4496   0.01668   0.00819   0.0057  0.9548  0.4764  -1.2457   0.0000   0.2556
  -3.250  -0.4112   0.01645   0.00803   0.0037  0.9474  0.5012  -1.1631   0.0000   0.2518
  -3.000  -0.3774   0.01625   0.00792   0.0026  0.9381  0.5243  -1.0910   0.0000   0.2498
  -2.750  -0.3425   0.01604   0.00780   0.0013  0.9286  0.5477  -1.0191   0.0000   0.2469
  -2.500  -0.3084   0.01585   0.00767   0.0003  0.9190  0.5708  -0.9562   0.0000   0.2442
  -2.250  -0.2768   0.01566   0.00755  -0.0001  0.9073  0.5939  -0.8966   0.0000   0.2427
  -2.000  -0.2426   0.01547   0.00747  -0.0009  0.8972  0.6159  -0.8406   0.0000   0.2393
  -1.750  -0.2127   0.01532   0.00738  -0.0009  0.8838  0.6373  -0.7900   0.0000   0.2390
  -1.500  -0.1803   0.01516   0.00727  -0.0013  0.8719  0.6590  -0.7424   0.0000   0.2360
  -1.250  -0.1507   0.01504   0.00720  -0.0011  0.8575  0.6806  -0.6987   0.0000   0.2358
  -1.000  -0.1197   0.01493   0.00716  -0.0011  0.8433  0.7006  -0.6572   0.0000   0.2341
  -0.750  -0.0888   0.01482   0.00709  -0.0010  0.8286  0.7207  -0.6182   0.0000   0.2317
  -0.500  -0.0611   0.01476   0.00704  -0.0005  0.8115  0.7414  -0.5834   0.0000   0.2360
  -0.250  -0.0282   0.01471   0.00702  -0.0006  0.7966  0.7594  -0.5476   0.0000   0.2233
   0.000   0.0000   0.01471   0.00704  -0.0000  0.7774  0.7774  -0.5162   0.0000   0.4177
   0.250   0.0282   0.01471   0.00702   0.0006  0.7594  0.7966  -0.5476   0.0000   0.2233
   0.500   0.0611   0.01476   0.00704   0.0005  0.7413  0.8115  -0.5834   0.0000   0.2360
   0.750   0.0888   0.01482   0.00709   0.0010  0.7207  0.8286  -0.6182   0.0000   0.2317
   1.000   0.1197   0.01493   0.00716   0.0011  0.7006  0.8433  -0.6572   0.0000   0.2341
   1.250   0.1506   0.01504   0.00720   0.0011  0.6806  0.8575  -0.6987   0.0000   0.2358
   1.500   0.1803   0.01516   0.00727   0.0013  0.6590  0.8719  -0.7423   0.0000   0.2359
   1.750   0.2127   0.01532   0.00738   0.0009  0.6372  0.8838  -0.7900   0.0000   0.2390
   2.000   0.2426   0.01547   0.00747   0.0009  0.6160  0.8973  -0.8406   0.0000   0.2393
   2.250   0.2768   0.01566   0.00755   0.0001  0.5939  0.9073  -0.8966   0.0000   0.2427
   2.500   0.3084   0.01584   0.00767  -0.0003  0.5708  0.9191  -0.9562   0.0000   0.2441
   2.750   0.3425   0.01603   0.00779  -0.0013  0.5477  0.9286  -1.0191   0.0000   0.2469
   3.000   0.3774   0.01624   0.00792  -0.0026  0.5243  0.9382  -1.0909   0.0000   0.2497
   3.250   0.4112   0.01645   0.00803  -0.0037  0.5012  0.9474  -1.1631   0.0000   0.2518
   3.500   0.4495   0.01668   0.00818  -0.0057  0.4764  0.9549  -1.2457   0.0000   0.2556
   3.750   0.4820   0.01691   0.00832  -0.0067  0.4525  0.9645  -1.3274   0.0000   0.2566
   4.000   0.5210   0.01712   0.00847  -0.0091  0.4270  0.9712  -1.4195   0.0000   0.2600
   4.250   0.5545   0.01738   0.00865  -0.0104  0.4026  0.9800  -1.5063   0.0000   0.2613
   4.500   0.5930   0.01762   0.00881  -0.0129  0.3772  0.9863  -1.6132   0.0000   0.2640
   4.750   0.6288   0.01791   0.00901  -0.0148  0.3522  0.9934  -1.7175   0.0000   0.2657
   5.000   0.6662   0.01820   0.00922  -0.0171  0.3274  0.9996  -1.8261   0.0000   0.2677
   5.250   0.6852   0.01849   0.00947  -0.0158  0.3082  1.0000  -1.9045   0.0000   0.2648
   5.500   0.7021   0.01882   0.00969  -0.0141  0.2900  1.0000  -1.9805   0.0000   0.2616
   5.750   0.7196   0.01913   0.00997  -0.0124  0.2717  1.0000  -2.0682   0.0000   0.2585
   6.000   0.7366   0.01949   0.01028  -0.0106  0.2546  1.0000  -2.1566   0.0000   0.2555
   6.250   0.7526   0.01990   0.01061  -0.0087  0.2387  1.0000  -2.2444   0.0000   0.2524
   6.500   0.7686   0.02032   0.01098  -0.0068  0.2229  1.0000  -2.3330   0.0000   0.2494
   6.750   0.7848   0.02076   0.01138  -0.0049  0.2081  1.0000  -2.4223   0.0000   0.2465
   7.000   0.7997   0.02127   0.01181  -0.0028  0.1950  1.0000  -2.5101   0.0000   0.2435
   7.250   0.8153   0.02175   0.01228  -0.0008  0.1822  1.0000  -2.5997   0.0000   0.2407
   7.500   0.8302   0.02230   0.01284   0.0013  0.1710  1.0000  -2.6884   0.0000   0.2379
   7.750   0.8445   0.02287   0.01336   0.0034  0.1598  1.0000  -2.7769   0.0000   0.2351
   8.000   0.8593   0.02345   0.01393   0.0055  0.1499  1.0000  -2.8660   0.0000   0.2325
   8.250   0.8729   0.02408   0.01453   0.0077  0.1411  1.0000  -2.9649   0.0000   0.2297
   8.500   0.8865   0.02476   0.01519   0.0099  0.1338  1.0000  -3.0660   0.0000   0.2271
   8.750   0.9007   0.02540   0.01588   0.0120  0.1261  1.0000  -3.1696   0.0000   0.2247


