xflr5 v6.48

 Calculated polar for: NACA 4412

 1 1 Reynolds number fixed          Mach number fixed

 xtrf =   1.000 (top)        1.000 (bottom)
 Mach =   0.000     Re =     0.100 e 6     Ncrit =   5.000

  alpha     CL        CD       CDp       Cm    Top Xtr Bot Xtr   Cpmin    Chinge    XCp
  -9.00   -0.374000   +0.091890    0.000000    0.000000   0.000000   0.000000
  -8.75   -0.388100   +0.088660    0.000000    0.000000   0.000000   0.000000
  -8.50   -0.407000   +0.085650    0.000000    0.000000   0.000000   0.000000
  -8.25   -0.431700   +0.082940    0.000000    0.000000   0.000000   0.000000
  -8.00   -0.447400   +0.077830    0.000000    0.000000   0.000000   0.000000
  -7.75   -0.443500   +0.065020    0.000000    0.000000   0.000000   0.000000
  -7.50   -0.450900   +0.046390    0.000000    0.000000   0.000000   0.000000
  -7.25   -0.432400   +0.039690    0.000000    0.000000   0.000000   0.000000
  -7.00   -0.406200   +0.035000    0.000000    0.000000   0.000000   0.000000
  -6.75   -0.383400   +0.031810    0.000000    0.000000   0.000000   0.000000
  -6.50   -0.352300   +0.029540    0.000000    0.000000   0.000000   0.000000
  -6.25   -0.316100   +0.028870    0.000000    0.000000   0.000000   0.000000
  -6.00   -0.289300   +0.027680    0.000000    0.000000   0.000000   0.000000
  -5.75   -0.258100   +0.026050    0.000000    0.000000   0.000000   0.000000
  -5.50   -0.222400   +0.024580    0.000000    0.000000   0.000000   0.000000
  -5.25   -0.183700   +0.023610    0.000000    0.000000   0.000000   0.000000
  -5.00   -0.159500   +0.022910    0.000000    0.000000   0.000000   0.000000
  -4.75   -0.126700   -0.019862    0.000000    0.000000   0.000000   0.000000
  -4.50   -0.090500   +0.021430    0.000000    0.000000   0.000000   0.000000
  -4.25   -0.061400   +0.020690    0.000000    0.000000   0.000000   0.000000
  -4.00   -0.033400   +0.020160    0.000000    0.000000   0.000000   0.000000
  -3.75   +0.000300   +0.019580    0.000000    0.000000   0.000000   0.000000
  -3.50   +0.035900   +0.019030    0.000000    0.000000   0.000000   0.000000
  -3.25   +0.058000   +0.018670    0.000000    0.000000   0.000000   0.000000
  -3.00   +0.089200   +0.018230    0.000000    0.000000   0.000000   0.000000
  -2.75   +0.123400   +0.017750    0.000000    0.000000   0.000000   0.000000
  -2.50   +0.147600   +0.017490    0.000000    0.000000   0.000000   0.000000
  -2.25   +0.177700   +0.017120    0.000000    0.000000   0.000000   0.000000
  -2.00   +0.211300   +0.016700    0.000000    0.000000   0.000000   0.000000
  -1.75   +0.235000   +0.016500    0.000000    0.000000   0.000000   0.000000
  -1.50   +0.264700   +0.016160    0.000000    0.000000   0.000000   0.000000
  -1.25   +0.296000   +0.015750    0.000000    0.000000   0.000000   0.000000
  -1.00   +0.319800   +0.015410    0.000000    0.000000   0.000000   0.000000
  -0.75   +0.346600   +0.014770    0.000000    0.000000   0.000000   0.000000
  -0.50   +0.368000   +0.014230    0.000000    0.000000   0.000000   0.000000
  -0.25   +0.421500   +0.013890    0.000000    0.000000   0.000000   0.000000
  +0.00   +0.451800   +0.013870    0.000000    0.000000   0.000000   0.000000
  +0.25   +0.476100   +0.014000    0.000000    0.000000   0.000000   0.000000
  +0.50   +0.504200   +0.014040    0.000000    0.000000   0.000000   0.000000
  +0.75   +0.531100   +0.014140    0.000000    0.000000   0.000000   0.000000
  +1.00   +0.557200   +0.014270    0.000000    0.000000   0.000000   0.000000
  +1.25   +0.586200   +0.014350    0.000000    0.000000   0.000000   0.000000
  +1.50   +0.610800   +0.014540    0.000000    0.000000   0.000000   0.000000
  +1.75   +0.637900   +0.014670    0.000000    0.000000   0.000000   0.000000
  +2.00   +0.665100   +0.014840    0.000000    0.000000   0.000000   0.000000
  +2.25   +0.690400   +0.015040    0.000000    0.000000   0.000000   0.000000
  +2.50   +0.717500   +0.015220    0.000000    0.000000   0.000000   0.000000
  +2.75   +0.743900   +0.015430    0.000000    0.000000   0.000000   0.000000
  +3.00   +0.769100   +0.015660    0.000000    0.000000   0.000000   0.000000
  +3.25   +0.796100   +0.015870    0.000000    0.000000   0.000000   0.000000
  +3.50   +0.822400   +0.016120    0.000000    0.000000   0.000000   0.000000
  +3.75   +0.847200   +0.016390    0.000000    0.000000   0.000000   0.000000
  +4.00   +0.873400   +0.016630    0.000000    0.000000   0.000000   0.000000
  +4.25   +0.900200   +0.016910    0.000000    0.000000   0.000000   0.000000
  +4.50   +0.924300   +0.017210    0.000000    0.000000   0.000000   0.000000
  +4.75   +0.949600   +0.017480    0.000000    0.000000   0.000000   0.000000
  +5.00   +0.976800   +0.017770    0.000000    0.000000   0.000000   0.000000
  +5.25   +1.000000   +0.018100    0.000000    0.000000   0.000000   0.000000
  +5.50   +1.024300   +0.018410    0.000000    0.000000   0.000000   0.000000
  +5.75   +1.050400   +0.018700    0.000000    0.000000   0.000000   0.000000
  +6.00   +1.073500   +0.019060    0.000000    0.000000   0.000000   0.000000
  +6.25   +1.096600   +0.019380    0.000000    0.000000   0.000000   0.000000
  +6.50   +1.122000   +0.019690    0.000000    0.000000   0.000000   0.000000
  +6.75   +1.142700   +0.020050    0.000000    0.000000   0.000000   0.000000
  +7.00   +1.165000   +0.020350    0.000000    0.000000   0.000000   0.000000
  +7.25   +1.185500   +0.020700    0.000000    0.000000   0.000000   0.000000
  +7.50   +1.205600   +0.021030    0.000000    0.000000   0.000000   0.000000
  +7.75   +1.224000   +0.021410    0.000000    0.000000   0.000000   0.000000
  +8.00   +1.242100   +0.021800    0.000000    0.000000   0.000000   0.000000
  +8.25   +1.258400   +0.022230    0.000000    0.000000   0.000000   0.000000
  +8.50   +1.273800   +0.022730    0.000000    0.000000   0.000000   0.000000
  +8.75   +1.287300   +0.023310    0.000000    0.000000   0.000000   0.000000
  +9.00   +1.298400   +0.024010    0.000000    0.000000   0.000000   0.000000
