xflr5 v6.48

 Calculated polar for: NACA 4412

 1 1 Reynolds number fixed          Mach number fixed

 xtrf =   1.000 (top)        1.000 (bottom)
 Mach =   0.000     Re =     0.060 e 6     Ncrit =   5.000

  alpha     CL        CD       CDp       Cm    Top Xtr Bot Xtr   Cpmin    Chinge    XCp
  -9.00   -0.366200   +0.097060    0.000000    0.000000   0.000000   0.000000
  -8.75   -0.374900   +0.094060    0.000000    0.000000   0.000000   0.000000
  -8.50   -0.386800   +0.091210    0.000000    0.000000   0.000000   0.000000
  -8.25   -0.402400   +0.088580    0.000000    0.000000   0.000000   0.000000
  -8.00   -0.421000   +0.086020    0.000000    0.000000   0.000000   0.000000
  -7.75   -0.436600   +0.082640    0.000000    0.000000   0.000000   0.000000
  -7.50   -0.450900   +0.078680    0.000000    0.000000   0.000000   0.000000
  -7.25   -0.463600   +0.074020    0.000000    0.000000   0.000000   0.000000
  -7.00   -0.474000   +0.068470    0.000000    0.000000   0.000000   0.000000
  -6.75   -0.462500   +0.058780    0.000000    0.000000   0.000000   0.000000
  -6.50   -0.444400   +0.048440    0.000000    0.000000   0.000000   0.000000
  -6.25   -0.410800   +0.048500    0.000000    0.000000   0.000000   0.000000
  -6.00   -0.384800   +0.044610    0.000000    0.000000   0.000000   0.000000
  -5.75   -0.353400   +0.039640    0.000000    0.000000   0.000000   0.000000
  -5.50   -0.320000   +0.035730    0.000000    0.000000   0.000000   0.000000
  -5.25   -0.289900   +0.033920    0.000000    0.000000   0.000000   0.000000
  -5.00   -1.129067   +0.032720    0.000000    0.000000   0.000000   0.000000
  -4.75   -0.219900   +0.031250    0.000000    0.000000   0.000000   0.000000
  -4.50   -0.188500   +0.030200    0.000000    0.000000   0.000000   0.000000
  -4.25   -0.149500   +0.028820    0.000000    0.000000   0.000000   0.000000
  -4.00   -0.117800   +0.028020    0.000000    0.000000   0.000000   0.000000
  -3.75   -0.085800   +0.027280    0.000000    0.000000   0.000000   0.000000
  -3.50   -0.047000   +0.026450    0.000000    0.000000   0.000000   0.000000
  -3.25   -0.015500   +0.025840    0.000000    0.000000   0.000000   0.000000
  -3.00   +0.015500   +0.025300    0.000000    0.000000   0.000000   0.000000
  -2.75   +0.054200   +0.024650    0.000000    0.000000   0.000000   0.000000
  -2.50   +0.085000   +0.024210    0.000000    0.000000   0.000000   0.000000
  -2.25   +0.113800   +0.023810    0.000000    0.000000   0.000000   0.000000
  -2.00   +0.150100   +0.023290    0.000000    0.000000   0.000000   0.000000
  -1.75   +0.181000   +0.022860    0.000000    0.000000   0.000000   0.000000
  -1.50   +0.207700   +0.022440    0.000000    0.000000   0.000000   0.000000
  -1.25   +0.241600   +0.021690    0.000000    0.000000   0.000000   0.000000
  -1.00   +0.265000   +0.020960    0.000000    0.000000   0.000000   0.000000
  -0.75   +0.295400   +0.020180    0.000000    0.000000   0.000000   0.000000
  -0.50   +0.340000   +0.019960    0.000000    0.000000   0.000000   0.000000
  -0.25   +0.368500   +0.020030    0.000000    0.000000   0.000000   0.000000
  +0.00   +0.395100   +0.020120    0.000000    0.000000   0.000000   0.000000
  +0.25   +0.430200   +0.019990    0.000000    0.000000   0.000000   0.000000
  +0.50   +0.453500   +0.020210    0.000000    0.000000   0.000000   0.000000
  +0.75   +0.482600   +0.020270    0.000000    0.000000   0.000000   0.000000
  +1.00   +0.517500   +0.020170    0.000000    0.000000   0.000000   0.000000
  +1.25   +0.538000   +0.020530    0.000000    0.000000   0.000000   0.000000
  +1.50   +0.568200   +0.020560    0.000000    0.000000   0.000000   0.000000
  +1.75   +0.599700   +0.020590    0.000000    0.000000   0.000000   0.000000
  +2.00   +0.621200   +0.020980    0.000000    0.000000   0.000000   0.000000
  +2.25   +0.651400   +0.021060    0.000000    0.000000   0.000000   0.000000
  +2.50   +0.680200   +0.021210    0.000000    0.000000   0.000000   0.000000
  +2.75   +0.702600   +0.021600    0.000000    0.000000   0.000000   0.000000
  +3.00   +0.732300   +0.021730    0.000000    0.000000   0.000000   0.000000
  +3.25   +0.760600   +0.021950    0.000000    0.000000   0.000000   0.000000
  +3.50   +0.782200   +0.022410    0.000000    0.000000   0.000000   0.000000
  +3.75   +0.810900   +0.022590    0.000000    0.000000   0.000000   0.000000
  +4.00   +0.840100   +0.022800    0.000000    0.000000   0.000000   0.000000
  +4.25   +0.859800   +0.023380    0.000000    0.000000   0.000000   0.000000
  +4.50   +0.887000   +0.023640    0.000000    0.000000   0.000000   0.000000
  +4.75   +0.918700   +0.023770    0.000000    0.000000   0.000000   0.000000
  +5.00   +0.935600   +0.024480    0.000000    0.000000   0.000000   0.000000
  +5.25   +0.961000   +0.024830    0.000000    0.000000   0.000000   0.000000
  +5.50   +0.992100   +0.024970    0.000000    0.000000   0.000000   0.000000
  +5.75   +1.009200   +0.025700    0.000000    0.000000   0.000000   0.000000
  +6.00   +1.033000   +0.026100    0.000000    0.000000   0.000000   0.000000
  +6.25   +1.063800   +0.026230    0.000000    0.000000   0.000000   0.000000
  +6.50   +1.079200   +0.027010    0.000000    0.000000   0.000000   0.000000
  +6.75   +1.102900   +0.027370    0.000000    0.000000   0.000000   0.000000
  +7.00   +1.130700   +0.027590    0.000000    0.000000   0.000000   0.000000
  +7.25   +1.145000   +0.028330    0.000000    0.000000   0.000000   0.000000
  +7.50   +1.172400   +0.028410    0.000000    0.000000   0.000000   0.000000
  +7.75   +1.186200   +0.029100    0.000000    0.000000   0.000000   0.000000
  +8.00   +1.209600   +0.029200    0.000000    0.000000   0.000000   0.000000
  +8.25   +1.221300   +0.029860    0.000000    0.000000   0.000000   0.000000
  +8.50   +1.242000   +0.029970    0.000000    0.000000   0.000000   0.000000
  +8.75   +1.249100   +0.030720    0.000000    0.000000   0.000000   0.000000
  +9.00   +1.259600   +0.031290    0.000000    0.000000   0.000000   0.000000
