xflr5 v6.48

 Calculated polar for: NACA 4412

 1 1 Reynolds number fixed          Mach number fixed         

 xtrf =   1.000 (top)        1.000 (bottom)
 Mach =   0.000     Re =     0.080 e 6     Ncrit =   5.000

  alpha     CL        CD       CDp       Cm    Top Xtr Bot Xtr   Cpmin    Chinge    XCp    
 ------- -------- --------- --------- -------- ------- ------- -------- --------- ---------
  -9.000  -0.3873   0.09119   0.08548  -0.0463  1.0000  0.0464  -2.4544   0.0000   0.1184
  -8.750  -0.3999   0.08820   0.08258  -0.0453  1.0000  0.0462  -2.5187   0.0000   0.1253
  -8.500  -0.4167   0.08546   0.07995  -0.0438  1.0000  0.0461  -2.5894   0.0000   0.1344
  -8.250  -0.4376   0.08295   0.07755  -0.0417  1.0000  0.0459  -2.6654   0.0000   0.1450
  -8.000  -0.4560   0.07955   0.07425  -0.0413  1.0000  0.0458  -2.7559   0.0000   0.1503
  -7.750  -0.4728   0.07525   0.07006  -0.0422  1.0000  0.0456  -2.8685   0.0000   0.1523
  -7.500  -0.4667   0.06311   0.05769  -0.0557  0.9918  0.0456  -3.1576   0.0000   0.1219
  -7.250  -0.4623   0.04934   0.04317  -0.0682  0.9822  0.0462  -3.5308   0.0000   0.0933
  -7.000  -0.4459   0.04147   0.03440  -0.0737  0.9748  0.0473  -3.6674   0.0000   0.0751
  -6.750  -0.4181   0.03896   0.03169  -0.0762  0.9688  0.0489  -3.5264   0.0000   0.0582
  -6.500  -0.3843   0.03741   0.02991  -0.0790  0.9642  0.0518  -3.3365   0.0000   0.0344
  -6.250  -0.3585   0.03532   0.02743  -0.0804  0.9568  0.0561  -3.2177   0.0000   0.0156
  -6.000  -0.3275   0.03226   0.02362  -0.0825  0.9506  0.0595  -3.1397   0.0000  -0.0128
  -5.750  -0.2921   0.03051   0.02174  -0.0850  0.9462  0.0620  -2.9645   0.0000  -0.0525
  -5.500  -0.2633   0.02917   0.02021  -0.0858  0.9390  0.0650  -2.8145   0.0000  -0.0878
  -5.250  -0.2314   0.02771   0.01842  -0.0869  0.9319  0.0689  -2.7064   0.0000  -0.1386
  -5.000  -0.1943   0.02642   0.01688  -0.0891  0.9269  0.0745  -2.5734   0.0000  -0.2232
  -4.750  -0.1582   0.02576   0.01612  -0.0910  0.9216  0.0818  -2.4091   0.0000  -0.3424
  -4.500  -0.1312   0.02483   0.01492  -0.0908  0.9121  0.0874  -2.3031   0.0000  -0.4616
  -4.250  -0.0956   0.02392   0.01406  -0.0925  0.9063  0.0937  -2.1543   0.0000  -0.7422
  -4.000  -0.0566   0.02310   0.01309  -0.0946  0.9019  0.1039  -2.0046   0.0000  -1.4610
  -3.750  -0.0321   0.02266   0.01269  -0.0941  0.8915  0.1136  -1.8777   0.0000  -2.7472
  -3.500   0.0004   0.02198   0.01198  -0.0950  0.8842  0.1245  -1.7427   0.0000  264.3405
  -3.250   0.0369   0.02135   0.01131  -0.0965  0.8789  0.1395  -1.5974   0.0000   2.9083
  -3.000   0.0638   0.02098   0.01089  -0.0963  0.8694  0.1559  -1.4771   0.0000   1.7838
  -2.750   0.0930   0.02053   0.01049  -0.0965  0.8608  0.1733  -1.3692   0.0000   1.3026
  -2.500   0.1273   0.02005   0.01005  -0.0975  0.8547  0.1979  -1.2547   0.0000   1.0258
  -2.250   0.1569   0.01965   0.00974  -0.0978  0.8464  0.2230  -1.1499   0.0000   0.8802
  -2.000   0.1839   0.01932   0.00950  -0.0975  0.8357  0.2524  -1.0509   0.0000   0.7855
  -1.750   0.2175   0.01886   0.00910  -0.0983  0.8284  0.2910  -0.9417   0.0000   0.7056
  -1.500   0.2458   0.01849   0.00887  -0.0983  0.8188  0.3348  -0.8466   0.0000   0.6525
  -1.250   0.2729   0.01810   0.00865  -0.0981  0.8082  0.3937  -0.7674   0.0000   0.6111
  -1.000   0.3031   0.01740   0.00842  -0.0982  0.8009  0.5092  -0.6845   0.0000   0.5750
  -0.750   0.3235   0.01677   0.00845  -0.0958  0.7907  0.6930  -0.6627   0.0000   0.5468
  -0.500   0.3710   0.01620   0.00825  -0.0983  0.7808  0.9814  -0.6938   0.0000   0.5148
  -0.250   0.4059   0.01607   0.00789  -0.0993  0.7719  1.0000  -0.7190   0.0000   0.4941
   0.000   0.4305   0.01619   0.00785  -0.0986  0.7592  1.0000  -0.7379   0.0000   0.4781
   0.250   0.4591   0.01621   0.00771  -0.0986  0.7485  1.0000  -0.7594   0.0000   0.4633
   0.500   0.4900   0.01620   0.00752  -0.0989  0.7395  1.0000  -0.7836   0.0000   0.4500
   0.750   0.5138   0.01638   0.00759  -0.0981  0.7261  1.0000  -0.8037   0.0000   0.4388
   1.000   0.5439   0.01639   0.00744  -0.0982  0.7161  1.0000  -0.8282   0.0000   0.4282
   1.250   0.5700   0.01655   0.00749  -0.0978  0.7045  1.0000  -0.8502   0.0000   0.4189
   1.500   0.5965   0.01669   0.00754  -0.0974  0.6932  1.0000  -0.8740   0.0000   0.4103
   1.750   0.6273   0.01674   0.00744  -0.0976  0.6844  1.0000  -0.9010   0.0000   0.4024
   2.000   0.6509   0.01701   0.00767  -0.0969  0.6720  1.0000  -0.9231   0.0000   0.3954
   2.250   0.6780   0.01716   0.00773  -0.0966  0.6614  1.0000  -0.9496   0.0000   0.3887
   2.500   0.7072   0.01730   0.00779  -0.0966  0.6527  1.0000  -0.9777   0.0000   0.3826
   2.750   0.7309   0.01761   0.00809  -0.0959  0.6412  1.0000  -1.0028   0.0000   0.3770
   3.000   0.7579   0.01780   0.00821  -0.0956  0.6314  1.0000  -1.0316   0.0000   0.3716
   3.250   0.7863   0.01800   0.00831  -0.0955  0.6228  1.0000  -1.0629   0.0000   0.3667
   3.500   0.8098   0.01834   0.00868  -0.0948  0.6121  1.0000  -1.0910   0.0000   0.3621
   3.750   0.8361   0.01858   0.00888  -0.0945  0.6027  1.0000  -1.1241   0.0000   0.3577
   4.000   0.8649   0.01880   0.00900  -0.0945  0.5947  1.0000  -1.1617   0.0000   0.3536
   4.250   0.8874   0.01918   0.00954  -0.0936  0.5843  1.0000  -1.1965   0.0000   0.3497
   4.500   0.9129   0.01948   0.00983  -0.0932  0.5750  1.0000  -1.2421   0.0000   0.3459
   4.750   0.9413   0.01972   0.00999  -0.0931  0.5671  1.0000  -1.3064   0.0000   0.3425
   5.000   0.9638   0.02013   0.01049  -0.0922  0.5572  1.0000  -1.3734   0.0000   0.3390
   5.250   0.9880   0.02048   0.01089  -0.0916  0.5476  1.0000  -1.4518   0.0000   0.3358
   5.500   1.0152   0.02074   0.01111  -0.0913  0.5391  1.0000  -1.5409   0.0000   0.3327
   5.750   1.0381   0.02117   0.01161  -0.0906  0.5296  1.0000  -1.6318   0.0000   0.3297
   6.000   1.0610   0.02155   0.01207  -0.0897  0.5192  1.0000  -1.7279   0.0000   0.3267
   6.250   1.0874   0.02183   0.01240  -0.0893  0.5101  1.0000  -1.8338   0.0000   0.3239
   6.500   1.1089   0.02227   0.01296  -0.0883  0.4995  1.0000  -1.9353   0.0000   0.3211
   6.750   1.1309   0.02264   0.01341  -0.0872  0.4881  1.0000  -2.0511   0.0000   0.3183
   7.000   1.1562   0.02292   0.01365  -0.0866  0.4774  1.0000  -2.1782   0.0000   0.3158
   7.250   1.1739   0.02338   0.01428  -0.0850  0.4636  1.0000  -2.2870   0.0000   0.3129
   7.500   1.1977   0.02361   0.01443  -0.0840  0.4506  1.0000  -2.4156   0.0000   0.3103
   7.750   1.2129   0.02409   0.01510  -0.0820  0.4345  1.0000  -2.5213   0.0000   0.3074
   8.000   1.2322   0.02441   0.01548  -0.0804  0.4190  1.0000  -2.6413   0.0000   0.3047
   8.250   1.2471   0.02486   0.01605  -0.0783  0.4010  1.0000  -2.7685   0.0000   0.3019
   8.500   1.2617   0.02534   0.01661  -0.0762  0.3827  1.0000  -2.8975   0.0000   0.2991
   8.750   1.2751   0.02585   0.01712  -0.0738  0.3633  1.0000  -3.0249   0.0000   0.2963
   9.000   1.2860   0.02645   0.01771  -0.0712  0.3422  1.0000  -3.1456   0.0000   0.2934


