xflr5 v6.48

 Calculated polar for: NACA 4412

 1 1 Reynolds number fixed          Mach number fixed

 xtrf =   1.000 (top)        1.000 (bottom)
 Mach =   0.000     Re =     0.070 e 6     Ncrit =   5.000

  alpha     CL        CD       CDp       Cm    Top Xtr Bot Xtr   Cpmin    Chinge    XCp
  -9.00   -0.360500   +0.096330    0.000000    0.000000   0.000000   0.000000
  -8.75   -0.371300   +0.093100    0.000000    0.000000   0.000000   0.000000
  -8.50   -0.385800   +0.090020    0.000000    0.000000   0.000000   0.000000
  -8.25   -0.404700   +0.087160    0.000000    0.000000   0.000000   0.000000
  -8.00   -0.428500   +0.084350    0.000000    0.000000   0.000000   0.000000
  -7.75   -0.449100   +0.080290    0.000000    0.000000   0.000000   0.000000
  -7.50   -0.467200   +0.075300    0.000000    0.000000   0.000000   0.000000
  -7.25   -0.467800   +0.066800    0.000000    0.000000   0.000000   0.000000
  -7.00   -0.454100   +0.057000    0.000000    0.000000   0.000000   0.000000
  -6.75   -0.432900   +0.049450    0.000000    0.000000   0.000000   0.000000
  -6.50   -0.410600   +0.044110    0.000000    0.000000   0.000000   0.000000
  -6.25   -0.382300   +0.038560    0.000000    0.000000   0.000000   0.000000
  -6.00   -0.351200   +0.036980    0.000000    0.000000   0.000000   0.000000
  -5.75   -0.322400   +0.000877    0.000000    0.000000   0.000000   0.000000
  -5.50   -0.287600   +0.032270    0.000000    0.000000   0.000000   0.000000
  -5.25   -0.251000   +0.030080    0.000000    0.000000   0.000000   0.000000
  -5.00   -0.224200   +0.029160    0.000000    0.000000   0.000000   0.000000
  -4.75   -0.187700   +0.028230    0.000000    0.000000   0.000000   0.000000
  -4.50   -0.147700   +0.026970    0.000000    0.000000   0.000000   0.000000
  -4.25   -0.123000   +0.026180    0.000000    0.000000   0.000000   0.000000
  -4.00   -0.087200   +0.025290    0.000000    0.000000   0.000000   0.000000
  -3.75   -0.046900   +0.024610    0.000000    0.000000   0.000000   0.000000
  -3.50   -0.021500   +0.023990    0.000000    0.000000   0.000000   0.000000
  -3.25   +0.011600   +0.023370    0.000000    0.000000   0.000000   0.000000
  -3.00   +0.049000   +0.022750    0.000000    0.000000   0.000000   0.000000
  -2.75   +0.075800   +0.022340    0.000000    0.000000   0.000000   0.000000
  -2.50   +0.106100   +0.021910    0.000000    0.000000   0.000000   0.000000
  -2.25   +0.141600   +0.021390    0.000000    0.000000   0.000000   0.000000
  -2.00   +0.170000   +0.021060    0.000000    0.000000   0.000000   0.000000
  -1.75   +0.198500   +0.020680    0.000000    0.000000   0.000000   0.000000
  -1.50   +0.233300   +0.020110    0.000000    0.000000   0.000000   0.000000
  -1.25   +0.259700   +0.019650    0.000000    0.000000   0.000000   0.000000
  -1.00   +0.284500   +0.019010    0.000000    0.000000   0.000000   0.000000
  -0.75   +0.309900   +0.018140    0.000000    0.000000   0.000000   0.000000
  -0.50   +0.360400   +0.017790    0.000000    0.000000   0.000000   0.000000
  -0.25   +0.387000   +0.017840    0.000000    0.000000   0.000000   0.000000
  +0.00   +0.421000   +0.017720    0.000000    0.000000   0.000000   0.000000
  +0.25   +0.444400   +0.017890    0.000000    0.000000   0.000000   0.000000
  +0.50   +0.473800   +0.017910    0.000000    0.000000   0.000000   0.000000
  +0.75   +0.506100   +0.017880    0.000000    0.000000   0.000000   0.000000
  +1.00   +0.528600   +0.018120    0.000000    0.000000   0.000000   0.000000
  +1.25   +0.559000   +0.018120    0.000000    0.000000   0.000000   0.000000
  +1.50   +0.586200   +0.018280    0.000000    0.000000   0.000000   0.000000
  +1.75   +0.611800   +0.018480    0.000000    0.000000   0.000000   0.000000
  +2.00   +0.642600   +0.018530    0.000000    0.000000   0.000000   0.000000
  +2.25   +0.667200   +0.018800    0.000000    0.000000   0.000000   0.000000
  +2.50   +0.693500   +0.019010    0.000000    0.000000   0.000000   0.000000
  +2.75   +0.724100   +0.019100    0.000000    0.000000   0.000000   0.000000
  +3.00   +0.747300   +0.019460    0.000000    0.000000   0.000000   0.000000
  +3.25   +0.773300   +0.019710    0.000000    0.000000   0.000000   0.000000
  +3.50   +0.803200   +0.019850    0.000000    0.000000   0.000000   0.000000
  +3.75   +0.826200   +0.020260    0.000000    0.000000   0.000000   0.000000
  +4.00   +0.851300   +0.020580    0.000000    0.000000   0.000000   0.000000
  +4.25   +0.880100   +0.020770    0.000000    0.000000   0.000000   0.000000
  +4.50   +0.903900   +0.021180    0.000000    0.000000   0.000000   0.000000
  +4.75   +0.927500   +0.021570    0.000000    0.000000   0.000000   0.000000
  +5.00   +0.955000   +0.021810    0.000000    0.000000   0.000000   0.000000
  +5.25   +0.980000   +0.022200    0.000000    0.000000   0.000000   0.000000
  +5.50   +1.001800   +0.022670    0.000000    0.000000   0.000000   0.000000
  +5.75   +1.028300   +0.022940    0.000000    0.000000   0.000000   0.000000
  +6.00   +1.053400   +0.023330    0.000000    0.000000   0.000000   0.000000
  +6.25   +1.073700   +0.023830    0.000000    0.000000   0.000000   0.000000
  +6.50   +1.099600   +0.024110    0.000000    0.000000   0.000000   0.000000
  +6.75   +1.121900   +0.024560    0.000000    0.000000   0.000000   0.000000
  +7.00   +1.142100   +0.025000    0.000000    0.000000   0.000000   0.000000
  +7.25   +1.169100   +0.025190    0.000000    0.000000   0.000000   0.000000
  +7.50   +1.183800   +0.025770    0.000000    0.000000   0.000000   0.000000
  +7.75   +1.208400   +0.025920    0.000000    0.000000   0.000000   0.000000
  +8.00   +1.220800   +0.026500    0.000000    0.000000   0.000000   0.000000
  +8.25   +1.239400   +0.026810    0.000000    0.000000   0.000000   0.000000
  +8.50   +1.252300   +0.027300    0.000000    0.000000   0.000000   0.000000
  +8.75   +1.264400   +0.027860    0.000000    0.000000   0.000000   0.000000
  +9.00   +1.275900   +0.028400    0.000000    0.000000   0.000000   0.000000
