xflr5 v6.48

 Calculated polar for: NACA 4412

 1 1 Reynolds number fixed          Mach number fixed         

 xtrf =   1.000 (top)        1.000 (bottom)
 Mach =   0.000     Re =     0.060 e 6     Ncrit =   5.000

  alpha     CL        CD       CDp       Cm    Top Xtr Bot Xtr   Cpmin    Chinge    XCp    
 ------- -------- --------- --------- -------- ------- ------- -------- --------- ---------
  -9.000  -0.3662   0.09706   0.09041  -0.0448  1.0000  0.0573  -2.1695   0.0000   0.1155
  -8.750  -0.3749   0.09406   0.08750  -0.0442  1.0000  0.0570  -2.2198   0.0000   0.1205
  -8.500  -0.3868   0.09121   0.08476  -0.0433  1.0000  0.0568  -2.2764   0.0000   0.1273
  -8.250  -0.4024   0.08858   0.08225  -0.0418  1.0000  0.0566  -2.3387   0.0000   0.1362
  -8.000  -0.4210   0.08602   0.07980  -0.0401  1.0000  0.0564  -2.4071   0.0000   0.1454
  -7.750  -0.4366   0.08264   0.07652  -0.0400  1.0000  0.0562  -2.4855   0.0000   0.1497
  -7.500  -0.4509   0.07868   0.07264  -0.0406  1.0000  0.0560  -2.5757   0.0000   0.1517
  -7.250  -0.4636   0.07402   0.06799  -0.0421  1.0000  0.0559  -2.6815   0.0000   0.1515
  -7.000  -0.4740   0.06847   0.06239  -0.0442  1.0000  0.0558  -2.8079   0.0000   0.1492
  -6.750  -0.4625   0.05878   0.05231  -0.0535  0.9937  0.0564  -2.9995   0.0000   0.1265
  -6.500  -0.4444   0.04844   0.04104  -0.0631  0.9856  0.0597  -3.2109   0.0000   0.0998
  -6.250  -0.4108   0.04850   0.04128  -0.0650  0.9802  0.0634  -2.9540   0.0000   0.0834
  -6.000  -0.3848   0.04461   0.03695  -0.0684  0.9728  0.0667  -2.9017   0.0000   0.0637
  -5.750  -0.3534   0.03964   0.03121  -0.0725  0.9667  0.0691  -2.8888   0.0000   0.0356
  -5.500  -0.3200   0.03573   0.02642  -0.0756  0.9610  0.0722  -2.8436   0.0000   0.0039
  -5.250  -0.2899   0.03392   0.02446  -0.0771  0.9535  0.0751  -2.7011   0.0000  -0.0261
  -5.000  -0.2534   0.03272   0.02306  -0.0795  0.9474  0.0811  -2.5653   0.0000  -0.0750
  -4.750  -0.2199   0.03125   0.02120  -0.0812  0.9404  0.0887  -2.4599   0.0000  -0.1317
  -4.500  -0.1885   0.03020   0.02001  -0.0824  0.9321  0.0941  -2.3327   0.0000  -0.2007
  -4.250  -0.1495   0.02882   0.01825  -0.0847  0.9264  0.1013  -2.2172   0.0000  -0.3323
  -4.000  -0.1178   0.02802   0.01747  -0.0858  0.9184  0.1095  -2.0819   0.0000  -0.4973
  -3.750  -0.0858   0.02728   0.01654  -0.0867  0.9097  0.1212  -1.9560   0.0000  -0.7842
  -3.500  -0.0470   0.02645   0.01569  -0.0888  0.9038  0.1326  -1.8109   0.0000  -1.6793
  -3.250  -0.0155   0.02584   0.01507  -0.0896  0.8954  0.1463  -1.6803   0.0000  -5.6501
  -3.000   0.0155   0.02530   0.01451  -0.0903  0.8861  0.1631  -1.5527   0.0000   6.1797
  -2.750   0.0542   0.02465   0.01379  -0.0922  0.8800  0.1838  -1.4197   0.0000   1.9778
  -2.500   0.0850   0.02421   0.01338  -0.0927  0.8715  0.2076  -1.3151   0.0000   1.3569
  -2.250   0.1138   0.02381   0.01302  -0.0929  0.8615  0.2338  -1.2153   0.0000   1.0767
  -2.000   0.1501   0.02329   0.01256  -0.0944  0.8551  0.2695  -1.1020   0.0000   0.8855
  -1.750   0.1810   0.02286   0.01224  -0.0949  0.8467  0.3101  -0.9993   0.0000   0.7793
  -1.500   0.2077   0.02244   0.01201  -0.0947  0.8356  0.3579  -0.9056   0.0000   0.7094
  -1.250   0.2416   0.02169   0.01164  -0.0956  0.8286  0.4394  -0.8104   0.0000   0.6479
  -1.000   0.2650   0.02096   0.01154  -0.0942  0.8191  0.5923  -0.7373   0.0000   0.6068
  -0.750   0.2954   0.02018   0.01150  -0.0927  0.8094  0.8904  -0.6537   0.0000   0.5646
  -0.500   0.3400   0.01996   0.01103  -0.0956  0.8019  1.0000  -0.6695   0.0000   0.5314
  -0.250   0.3685   0.02003   0.01087  -0.0957  0.7918  1.0000  -0.6902   0.0000   0.5092
   0.000   0.3951   0.02012   0.01077  -0.0953  0.7800  1.0000  -0.7098   0.0000   0.4905
   0.250   0.4302   0.01999   0.01044  -0.0962  0.7722  1.0000  -0.7352   0.0000   0.4725
   0.500   0.4535   0.02021   0.01053  -0.0954  0.7596  1.0000  -0.7540   0.0000   0.4588
   0.750   0.4826   0.02027   0.01044  -0.0954  0.7495  1.0000  -0.7771   0.0000   0.4458
   1.000   0.5175   0.02017   0.01016  -0.0962  0.7423  1.0000  -0.8045   0.0000   0.4338
   1.250   0.5380   0.02053   0.01045  -0.0950  0.7287  1.0000  -0.8221   0.0000   0.4242
   1.500   0.5682   0.02056   0.01036  -0.0952  0.7190  1.0000  -0.8482   0.0000   0.4147
   1.750   0.5997   0.02059   0.01026  -0.0955  0.7107  1.0000  -0.8753   0.0000   0.4061
   2.000   0.6212   0.02098   0.01061  -0.0945  0.6981  1.0000  -0.8952   0.0000   0.3987
   2.250   0.6514   0.02106   0.01059  -0.0946  0.6890  1.0000  -0.9235   0.0000   0.3916
   2.500   0.6802   0.02121   0.01071  -0.0946  0.6800  1.0000  -0.9509   0.0000   0.3851
   2.750   0.7026   0.02160   0.01109  -0.0937  0.6682  1.0000  -0.9745   0.0000   0.3792
   3.000   0.7323   0.02173   0.01114  -0.0938  0.6595  1.0000  -1.0050   0.0000   0.3736
   3.250   0.7606   0.02195   0.01130  -0.0937  0.6509  1.0000  -1.0354   0.0000   0.3685
   3.500   0.7822   0.02241   0.01179  -0.0927  0.6395  1.0000  -1.0615   0.0000   0.3636
   3.750   0.8109   0.02259   0.01193  -0.0926  0.6307  1.0000  -1.0958   0.0000   0.3590
   4.000   0.8401   0.02280   0.01209  -0.0927  0.6228  1.0000  -1.1326   0.0000   0.3548
   4.250   0.8598   0.02338   0.01274  -0.0915  0.6117  1.0000  -1.1633   0.0000   0.3507
   4.500   0.8870   0.02364   0.01308  -0.0912  0.6026  1.0000  -1.2065   0.0000   0.3468
   4.750   0.9187   0.02377   0.01313  -0.0915  0.5953  1.0000  -1.2673   0.0000   0.3433
   5.000   0.9356   0.02448   0.01399  -0.0900  0.5842  1.0000  -1.3206   0.0000   0.3397
   5.250   0.9610   0.02483   0.01436  -0.0895  0.5746  1.0000  -1.3936   0.0000   0.3363
   5.500   0.9921   0.02497   0.01446  -0.0897  0.5669  1.0000  -1.4884   0.0000   0.3332
   5.750   1.0092   0.02570   0.01534  -0.0882  0.5561  1.0000  -1.5584   0.0000   0.3300
   6.000   1.0330   0.02610   0.01580  -0.0875  0.5459  1.0000  -1.6544   0.0000   0.3269
   6.250   1.0638   0.02623   0.01600  -0.0875  0.5377  1.0000  -1.7680   0.0000   0.3242
   6.500   1.0792   0.02701   0.01695  -0.0858  0.5262  1.0000  -1.8495   0.0000   0.3211
   6.750   1.1029   0.02737   0.01739  -0.0850  0.5155  1.0000  -1.9592   0.0000   0.3184
   7.000   1.1307   0.02759   0.01761  -0.0846  0.5057  1.0000  -2.0900   0.0000   0.3158
   7.250   1.1450   0.02833   0.01854  -0.0826  0.4928  1.0000  -2.1872   0.0000   0.3128
   7.500   1.1724   0.02841   0.01862  -0.0821  0.4811  1.0000  -2.3226   0.0000   0.3103
   7.750   1.1862   0.02910   0.01948  -0.0799  0.4673  1.0000  -2.4223   0.0000   0.3074
   8.000   1.2096   0.02920   0.01960  -0.0788  0.4531  1.0000  -2.5519   0.0000   0.3047
   8.250   1.2213   0.02986   0.02050  -0.0763  0.4372  1.0000  -2.6494   0.0000   0.3017
   8.500   1.2420   0.02997   0.02058  -0.0747  0.4211  1.0000  -2.7979   0.0000   0.2990
   8.750   1.2491   0.03072   0.02153  -0.0717  0.4030  1.0000  -2.9011   0.0000   0.2959
   9.000   1.2596   0.03129   0.02218  -0.0690  0.3848  1.0000  -3.0177   0.0000   0.2929


