xflr5 v6.48

 Calculated polar for: NACA 4412

 1 1 Reynolds number fixed          Mach number fixed

 xtrf =   1.000 (top)        1.000 (bottom)
 Mach =   0.000     Re =     0.050 e 6     Ncrit =   5.000

  alpha     CL        CD       CDp       Cm    Top Xtr Bot Xtr   Cpmin    Chinge    XCp
  -9.00   -0.352400   +0.100740    0.000000    0.000000   0.000000   0.000000
  -8.75   -0.360100   +0.097660    0.000000    0.000000   0.000000   0.000000
  -8.50   -0.370600   +0.094690    0.000000    0.000000   0.000000   0.000000
  -8.25   -0.384300   +0.091900    0.000000    0.000000   0.000000   0.000000
  -8.00   -0.402100   +0.089280    0.000000    0.000000   0.000000   0.000000
  -7.75   -0.419000   +0.086180    0.000000    0.000000   0.000000   0.000000
  -7.50   -0.433400   +0.082500    0.000000    0.000000   0.000000   0.000000
  -7.25   -0.445300   +0.078590    0.000000    0.000000   0.000000   0.000000
  -7.00   -0.453800   +0.074660    0.000000    0.000000   0.000000   0.000000
  -6.75   -0.459700   +0.070400    0.000000    0.000000   0.000000   0.000000
  -6.50   -0.463500   +0.065240    0.000000    0.000000   0.000000   0.000000
  -6.25   -0.456600   +0.057690    0.000000    0.000000   0.000000   0.000000
  -6.00   -0.430000   +0.049400    0.000000    0.000000   0.000000   0.000000
  -5.75   -0.400300   +0.045990    0.000000    0.000000   0.000000   0.000000
  -5.50   -0.367100   +0.043120    0.000000    0.000000   0.000000   0.000000
  -5.25   -0.334900   +0.040100    0.000000    0.000000   0.000000   0.000000
  -5.00   -0.296700   +0.036950    0.000000    0.000000   0.000000   0.000000
  -4.75   -0.266100   +0.036110    0.000000    0.000000   0.000000   0.000000
  -4.50   -0.229400   +0.034140    0.000000    0.000000   0.000000   0.000000
  -4.25   -0.189200   +0.032440    0.000000    0.000000   0.000000   0.000000
  -4.00   -0.160900   +0.031590    0.000000    0.000000   0.000000   0.000000
  -3.75   -0.123000   +0.030690    0.000000    0.000000   0.000000   0.000000
  -3.50   -0.087800   +0.029710    0.000000    0.000000   0.000000   0.000000
  -3.25   -0.056900   +0.029070    0.000000    0.000000   0.000000   0.000000
  -3.00   -0.017000   +0.028380    0.000000    0.000000   0.000000   0.000000
  -2.75   +0.012000   +0.027840    0.000000    0.000000   0.000000   0.000000
  -2.50   +0.046400   +0.027340    0.000000    0.000000   0.000000   0.000000
  -2.25   +0.088300   +0.026740    0.000000    0.000000   0.000000   0.000000
  -2.00   +0.113100   +0.026390    0.000000    0.000000   0.000000   0.000000
  -1.75   +0.147800   +0.025890    0.000000    0.000000   0.000000   0.000000
  -1.50   +0.186000   +0.025150    0.000000    0.000000   0.000000   0.000000
  -0.75   +0.283000   +0.022810    0.000000    0.000000   0.000000   0.000000
  -0.50   +0.303500   +0.023090    0.000000    0.000000   0.000000   0.000000
  -0.25   +0.337500   +0.023090    0.000000    0.000000   0.000000   0.000000
  +0.00   +0.373800   +0.023030    0.000000    0.000000   0.000000   0.000000
  +0.25   +0.393300   +0.023380    0.000000    0.000000   0.000000   0.000000
  +0.50   +0.428300   +0.023310    0.000000    0.000000   0.000000   0.000000
  +0.75   +0.455200   +0.023500    0.000000    0.000000   0.000000   0.000000
  +1.00   +0.480900   +0.023730    0.000000    0.000000   0.000000   0.000000
  +1.25   +0.515500   +0.023670    0.000000    0.000000   0.000000   0.000000
  +1.50   +0.539000   +0.024020    0.000000    0.000000   0.000000   0.000000
  +1.75   +0.565800   +0.024230    0.000000    0.000000   0.000000   0.000000
  +2.00   +0.600300   +0.024160    0.000000    0.000000   0.000000   0.000000
  +2.25   +0.621400   +0.024660    0.000000    0.000000   0.000000   0.000000
  +2.50   +0.647700   +0.024930    0.000000    0.000000   0.000000   0.000000
  +2.75   +0.681700   +0.024880    0.000000    0.000000   0.000000   0.000000
  +3.00   +0.702300   +0.025450    0.000000    0.000000   0.000000   0.000000
  +3.25   +0.727100   +0.025810    0.000000    0.000000   0.000000   0.000000
  +3.50   +0.759900   +0.025840    0.000000    0.000000   0.000000   0.000000
  +3.75   +0.781900   +0.026390    0.000000    0.000000   0.000000   0.000000
  +4.00   +0.804000   +0.026900    0.000000    0.000000   0.000000   0.000000
  +4.25   +0.835400   +0.027000    0.000000    0.000000   0.000000   0.000000
  +4.50   +0.860600   +0.027430    0.000000    0.000000   0.000000   0.000000
  +4.75   +0.878500   +0.028180    0.000000    0.000000   0.000000   0.000000
  +5.00   +0.908300   +0.028340    0.000000    0.000000   0.000000   0.000000
  +5.25   +0.938100   +0.028570    0.000000    0.000000   0.000000   0.000000
  +5.50   +0.950900   +0.029580    0.000000    0.000000   0.000000   0.000000
  +5.75   +0.979000   +0.029810    0.000000    0.000000   0.000000   0.000000
  +6.00   +1.011600   +0.029890    0.000000    0.000000   0.000000   0.000000
  +6.25   +1.020600   +0.031090    0.000000    0.000000   0.000000   0.000000
  +6.50   +1.048200   -0.045990    0.000000    0.000000   0.000000   0.000000
  +6.75   +1.076800   +0.031540    0.000000    0.000000   0.000000   0.000000
  +7.00   +1.087000   +0.032630    0.000000    0.000000   0.000000   0.000000
  +7.25   +1.118500   +0.032570    0.000000    0.000000   0.000000   0.000000
  +7.50   +1.132900   +0.033430    0.000000    0.000000   0.000000   0.000000
  +7.75   +1.153500   +0.033820    0.000000    0.000000   0.000000   0.000000
  +8.00   +1.177600   +0.034010    0.000000    0.000000   0.000000   0.000000
  +8.25   +1.190100   +0.034680    0.000000    0.000000   0.000000   0.000000
  +8.50   +1.210200   +0.034870    0.000000    0.000000   0.000000   0.000000
  +8.75   +1.224400   +0.035240    0.000000    0.000000   0.000000   0.000000
  +9.00   +1.231500   +0.036020    0.000000    0.000000   0.000000   0.000000
