xflr5 v6.48

 Calculated polar for: NACA 4412

 1 1 Reynolds number fixed          Mach number fixed         

 xtrf =   1.000 (top)        1.000 (bottom)
 Mach =   0.000     Re =     0.070 e 6     Ncrit =   5.000

  alpha     CL        CD       CDp       Cm    Top Xtr Bot Xtr   Cpmin    Chinge    XCp    
 ------- -------- --------- --------- -------- ------- ------- -------- --------- ---------
  -9.000  -0.3605   0.09633   0.09017  -0.0437  1.0000  0.0522  -2.1287   0.0000   0.1165
  -8.750  -0.3713   0.09310   0.08704  -0.0433  1.0000  0.0518  -2.2006   0.0000   0.1218
  -8.500  -0.3858   0.09002   0.08406  -0.0424  1.0000  0.0514  -2.2802   0.0000   0.1292
  -8.250  -0.4047   0.08716   0.08133  -0.0409  1.0000  0.0510  -2.3673   0.0000   0.1388
  -8.000  -0.4285   0.08435   0.07864  -0.0391  1.0000  0.0506  -2.4688   0.0000   0.1494
  -7.750  -0.4491   0.08029   0.07468  -0.0396  1.0000  0.0502  -2.5931   0.0000   0.1533
  -7.500  -0.4672   0.07530   0.06974  -0.0412  1.0000  0.0499  -2.7349   0.0000   0.1537
  -7.250  -0.4678   0.06680   0.06112  -0.0491  0.9954  0.0498  -2.9249   0.0000   0.1369
  -7.000  -0.4541   0.05700   0.05096  -0.0591  0.9873  0.0504  -3.1068   0.0000   0.1116
  -6.750  -0.4329   0.04945   0.04291  -0.0665  0.9805  0.0518  -3.1916   0.0000   0.0877
  -6.500  -0.4106   0.04411   0.03701  -0.0708  0.9728  0.0547  -3.2005   0.0000   0.0685
  -6.250  -0.3823   0.03856   0.03045  -0.0755  0.9666  0.0596  -3.2214   0.0000   0.0431
  -6.000  -0.3512   0.03698   0.02881  -0.0776  0.9610  0.0624  -3.0459   0.0000   0.0194
  -5.750  -0.3224   0.03468   0.02615  -0.0791  0.9536  0.0648  -2.9326   0.0000  -0.0056
  -5.500  -0.2876   0.03227   0.02325  -0.0815  0.9481  0.0682  -2.8125   0.0000  -0.0444
  -5.250  -0.2510   0.03008   0.02044  -0.0838  0.9433  0.0722  -2.7175   0.0000  -0.0959
  -5.000  -0.2242   0.02916   0.01957  -0.0842  0.9342  0.0768  -2.5822   0.0000  -0.1386
  -4.750  -0.1877   0.02823   0.01830  -0.0863  0.9281  0.0849  -2.4407   0.0000  -0.2239
  -4.500  -0.1477   0.02697   0.01692  -0.0889  0.9238  0.0909  -2.2997   0.0000  -0.3688
  -4.250  -0.1230   0.02618   0.01604  -0.0884  0.9134  0.0966  -2.1884   0.0000  -0.4882
  -4.000  -0.0872   0.02529   0.01501  -0.0901  0.9069  0.1057  -2.0509   0.0000  -0.8081
  -3.750  -0.0469   0.02461   0.01420  -0.0925  0.9022  0.1189  -1.8954   0.0000  -1.7636
  -3.500  -0.0215   0.02399   0.01366  -0.0921  0.8919  0.1278  -1.7754   0.0000  -4.1193
  -3.250   0.0116   0.02337   0.01300  -0.0931  0.8843  0.1419  -1.6403   0.0000   8.4207
  -3.000   0.0490   0.02275   0.01233  -0.0948  0.8788  0.1608  -1.4979   0.0000   2.2159
  -2.750   0.0758   0.02234   0.01193  -0.0945  0.8690  0.1782  -1.3932   0.0000   1.5160
  -2.500   0.1061   0.02191   0.01156  -0.0949  0.8603  0.2014  -1.2868   0.0000   1.1571
  -2.250   0.1416   0.02139   0.01111  -0.0962  0.8543  0.2297  -1.1720   0.0000   0.9377
  -2.000   0.1700   0.02106   0.01083  -0.0963  0.8451  0.2613  -1.0718   0.0000   0.8222
  -1.750   0.1985   0.02068   0.01056  -0.0963  0.8348  0.2979  -0.9724   0.0000   0.7393
  -1.500   0.2333   0.02011   0.01013  -0.0974  0.8280  0.3489  -0.8636   0.0000   0.6702
  -1.250   0.2597   0.01965   0.00992  -0.0970  0.8177  0.4153  -0.7853   0.0000   0.6256
  -1.000   0.2845   0.01901   0.00984  -0.0961  0.8075  0.5432  -0.7104   0.0000   0.5891
  -0.750   0.3099   0.01814   0.00969  -0.0939  0.8008  0.7697  -0.6529   0.0000   0.5538
  -0.500   0.3604   0.01779   0.00940  -0.0976  0.7917  1.0000  -0.6850   0.0000   0.5208
  -0.250   0.3870   0.01784   0.00925  -0.0972  0.7798  1.0000  -0.7049   0.0000   0.5008
   0.000   0.4210   0.01772   0.00890  -0.0980  0.7716  1.0000  -0.7297   0.0000   0.4818
   0.250   0.4444   0.01789   0.00894  -0.0971  0.7586  1.0000  -0.7476   0.0000   0.4673
   0.500   0.4738   0.01791   0.00880  -0.0972  0.7485  1.0000  -0.7707   0.0000   0.4535
   0.750   0.5061   0.01788   0.00858  -0.0977  0.7402  1.0000  -0.7963   0.0000   0.4410
   1.000   0.5286   0.01812   0.00874  -0.0967  0.7266  1.0000  -0.8153   0.0000   0.4307
   1.250   0.5590   0.01812   0.00860  -0.0968  0.7169  1.0000  -0.8404   0.0000   0.4207
   1.500   0.5862   0.01828   0.00865  -0.0966  0.7064  1.0000  -0.8643   0.0000   0.4119
   1.750   0.6118   0.01848   0.00878  -0.0961  0.6949  1.0000  -0.8873   0.0000   0.4040
   2.000   0.6426   0.01853   0.00870  -0.0963  0.6861  1.0000  -0.9147   0.0000   0.3965
   2.250   0.6672   0.01880   0.00892  -0.0957  0.6747  1.0000  -0.9389   0.0000   0.3898
   2.500   0.6935   0.01901   0.00911  -0.0953  0.6639  1.0000  -0.9646   0.0000   0.3835
   2.750   0.7241   0.01910   0.00909  -0.0955  0.6557  1.0000  -0.9952   0.0000   0.3777
   3.000   0.7473   0.01946   0.00945  -0.0948  0.6448  1.0000  -1.0205   0.0000   0.3724
   3.250   0.7733   0.01971   0.00966  -0.0944  0.6345  1.0000  -1.0495   0.0000   0.3673
   3.500   0.8032   0.01985   0.00971  -0.0945  0.6264  1.0000  -1.0832   0.0000   0.3626
   3.750   0.8262   0.02026   0.01014  -0.0937  0.6162  1.0000  -1.1128   0.0000   0.3582
   4.000   0.8513   0.02058   0.01046  -0.0932  0.6062  1.0000  -1.1464   0.0000   0.3540
   4.250   0.8801   0.02077   0.01067  -0.0932  0.5980  1.0000  -1.1870   0.0000   0.3500
   4.500   0.9039   0.02118   0.01111  -0.0925  0.5885  1.0000  -1.2289   0.0000   0.3463
   4.750   0.9275   0.02157   0.01155  -0.0918  0.5785  1.0000  -1.2838   0.0000   0.3426
   5.000   0.9550   0.02181   0.01176  -0.0916  0.5700  1.0000  -1.3563   0.0000   0.3393
   5.250   0.9800   0.02220   0.01218  -0.0911  0.5611  1.0000  -1.4333   0.0000   0.3360
   5.500   1.0018   0.02267   0.01274  -0.0901  0.5508  1.0000  -1.5118   0.0000   0.3328
   5.750   1.0283   0.02294   0.01301  -0.0897  0.5417  1.0000  -1.6057   0.0000   0.3297
   6.000   1.0534   0.02333   0.01343  -0.0892  0.5328  1.0000  -1.7058   0.0000   0.3269
   6.250   1.0737   0.02383   0.01415  -0.0880  0.5217  1.0000  -1.7974   0.0000   0.3239
   6.500   1.0996   0.02411   0.01444  -0.0875  0.5120  1.0000  -1.9038   0.0000   0.3211
   6.750   1.1219   0.02456   0.01496  -0.0865  0.5015  1.0000  -2.0191   0.0000   0.3184
   7.000   1.1421   0.02500   0.01552  -0.0853  0.4894  1.0000  -2.1316   0.0000   0.3156
   7.250   1.1691   0.02519   0.01565  -0.0848  0.4784  1.0000  -2.2649   0.0000   0.3131
   7.500   1.1838   0.02577   0.01644  -0.0827  0.4642  1.0000  -2.3666   0.0000   0.3101
   7.750   1.2084   0.02592   0.01652  -0.0818  0.4507  1.0000  -2.4988   0.0000   0.3076
   8.000   1.2208   0.02650   0.01731  -0.0794  0.4344  1.0000  -2.5980   0.0000   0.3046
   8.250   1.2394   0.02681   0.01769  -0.0777  0.4185  1.0000  -2.7288   0.0000   0.3018
   8.500   1.2523   0.02730   0.01831  -0.0753  0.4003  1.0000  -2.8515   0.0000   0.2989
   8.750   1.2644   0.02786   0.01897  -0.0729  0.3817  1.0000  -2.9731   0.0000   0.2960
   9.000   1.2759   0.02840   0.01952  -0.0703  0.3622  1.0000  -3.0947   0.0000   0.2931


