xflr5 v6.48

 Calculated polar for: NACA 4412

 1 1 Reynolds number fixed          Mach number fixed

 xtrf =   1.000 (top)        1.000 (bottom)
 Mach =   0.000     Re =     0.080 e 6     Ncrit =   5.000

  alpha     CL        CD       CDp       Cm    Top Xtr Bot Xtr   Cpmin    Chinge    XCp
  -9.00   -0.387300   +0.091190    0.000000    0.000000   0.000000   0.000000
  -8.75   -0.399900   +0.088200    0.000000    0.000000   0.000000   0.000000
  -8.50   -0.416700   +0.085460    0.000000    0.000000   0.000000   0.000000
  -8.25   -0.437600   +0.082950    0.000000    0.000000   0.000000   0.000000
  -8.00   -0.456000   +0.079550    0.000000    0.000000   0.000000   0.000000
  -7.75   -0.472800   +0.075250    0.000000    0.000000   0.000000   0.000000
  -7.50   -0.466700   +0.063110    0.000000    0.000000   0.000000   0.000000
  -7.25   -0.462300   +0.049340    0.000000    0.000000   0.000000   0.000000
  -7.00   -0.445900   +0.041470    0.000000    0.000000   0.000000   0.000000
  -6.75   -0.418100   +0.038960    0.000000    0.000000   0.000000   0.000000
  -6.50   -0.384300   +0.037410    0.000000    0.000000   0.000000   0.000000
  -6.25   -0.358500   +0.035320    0.000000    0.000000   0.000000   0.000000
  -6.00   -0.327500   +0.032260    0.000000    0.000000   0.000000   0.000000
  -5.75   -0.292100   +0.030510    0.000000    0.000000   0.000000   0.000000
  -5.50   -0.263300   +0.029170    0.000000    0.000000   0.000000   0.000000
  -5.25   -0.231400   +0.027710    0.000000    0.000000   0.000000   0.000000
  -5.00   -0.194300   +0.026420    0.000000    0.000000   0.000000   0.000000
  -4.75   -0.158200   +0.025760    0.000000    0.000000   0.000000   0.000000
  -4.50   -0.131200   +0.024830    0.000000    0.000000   0.000000   0.000000
  -4.25   -0.095600   +0.023920    0.000000    0.000000   0.000000   0.000000
  -4.00   -0.056600   +0.023100    0.000000    0.000000   0.000000   0.000000
  -3.75   -0.032100   +0.022660    0.000000    0.000000   0.000000   0.000000
  -3.50   +0.000400   +0.021980    0.000000    0.000000   0.000000   0.000000
  -3.25   +0.036900   +0.021350    0.000000    0.000000   0.000000   0.000000
  -3.00   +0.063800   +0.020980    0.000000    0.000000   0.000000   0.000000
  -2.75   +0.093000   +0.020530    0.000000    0.000000   0.000000   0.000000
  -2.50   +0.127300   +0.020050    0.000000    0.000000   0.000000   0.000000
  -2.25   +0.156900   +0.019650    0.000000    0.000000   0.000000   0.000000
  -2.00   +0.183900   +0.019320    0.000000    0.000000   0.000000   0.000000
  -1.75   +0.217500   +0.018860    0.000000    0.000000   0.000000   0.000000
  -1.50   +0.245800   +0.018490    0.000000    0.000000   0.000000   0.000000
  -1.25   +0.272900   +0.018100    0.000000    0.000000   0.000000   0.000000
  -1.00   +0.303100   +0.017400    0.000000    0.000000   0.000000   0.000000
  -0.75   +0.323500   +0.016770    0.000000    0.000000   0.000000   0.000000
  -0.50   +0.371000   +0.016200    0.000000    0.000000   0.000000   0.000000
  -0.25   +0.405900   +0.016070    0.000000    0.000000   0.000000   0.000000
  +0.00   +0.430500   +0.016190    0.000000    0.000000   0.000000   0.000000
  +0.25   +0.459100   +0.016210    0.000000    0.000000   0.000000   0.000000
  +0.50   +0.490000   +0.016200    0.000000    0.000000   0.000000   0.000000
  +0.75   +0.513800   +0.016380    0.000000    0.000000   0.000000   0.000000
  +1.00   +0.543900   +0.016390    0.000000    0.000000   0.000000   0.000000
  +1.25   +0.570000   +0.016550    0.000000    0.000000   0.000000   0.000000
  +1.50   +0.596500   +0.016690    0.000000    0.000000   0.000000   0.000000
  +1.75   +0.627300   +0.016740    0.000000    0.000000   0.000000   0.000000
  +2.00   +0.650900   +0.017010    0.000000    0.000000   0.000000   0.000000
  +2.25   +0.678000   +0.017160    0.000000    0.000000   0.000000   0.000000
  +2.50   +0.707200   +0.017300    0.000000    0.000000   0.000000   0.000000
  +2.75   +0.730900   +0.017610    0.000000    0.000000   0.000000   0.000000
  +3.00   +0.757900   +0.017800    0.000000    0.000000   0.000000   0.000000
  +3.25   +0.786300   +0.018000    0.000000    0.000000   0.000000   0.000000
  +3.50   +0.809800   +0.018340    0.000000    0.000000   0.000000   0.000000
  +3.75   +0.836100   +0.018580    0.000000    0.000000   0.000000   0.000000
  +4.00   +0.864900   +0.018800    0.000000    0.000000   0.000000   0.000000
  +4.25   +0.887400   +0.019180    0.000000    0.000000   0.000000   0.000000
  +4.50   +0.912900   +0.019480    0.000000    0.000000   0.000000   0.000000
  +4.75   +0.941300   +0.019720    0.000000    0.000000   0.000000   0.000000
  +5.00   +0.963800   +0.020130    0.000000    0.000000   0.000000   0.000000
  +5.25   +0.988000   +0.020480    0.000000    0.000000   0.000000   0.000000
  +5.50   +1.015200   +0.020740    0.000000    0.000000   0.000000   0.000000
  +5.75   +1.038100   +0.021170    0.000000    0.000000   0.000000   0.000000
  +6.00   +1.061000   +0.021550    0.000000    0.000000   0.000000   0.000000
  +6.25   +1.087400   +0.021830    0.000000    0.000000   0.000000   0.000000
  +6.50   +1.108900   +0.022270    0.000000    0.000000   0.000000   0.000000
  +6.75   +1.130900   +0.022640    0.000000    0.000000   0.000000   0.000000
  +7.00   +1.156200   +0.022920    0.000000    0.000000   0.000000   0.000000
  +7.25   +1.173900   +0.023380    0.000000    0.000000   0.000000   0.000000
  +7.50   +1.197700   +0.023610    0.000000    0.000000   0.000000   0.000000
  +7.75   +1.212900   +0.024090    0.000000    0.000000   0.000000   0.000000
  +8.00   +1.232200   +0.024410    0.000000    0.000000   0.000000   0.000000
  +8.25   +1.247100   +0.024860    0.000000    0.000000   0.000000   0.000000
  +8.50   +1.261700   +0.025340    0.000000    0.000000   0.000000   0.000000
  +8.75   +1.275100   +0.025850    0.000000    0.000000   0.000000   0.000000
  +9.00   +1.286000   +0.026450    0.000000    0.000000   0.000000   0.000000
