xflr5 v6.48

 Calculated polar for: NACA 4412

 1 1 Reynolds number fixed          Mach number fixed         

 xtrf =   1.000 (top)        1.000 (bottom)
 Mach =   0.000     Re =     0.050 e 6     Ncrit =   5.000

  alpha     CL        CD       CDp       Cm    Top Xtr Bot Xtr   Cpmin    Chinge    XCp    
 ------- -------- --------- --------- -------- ------- ------- -------- --------- ---------
  -9.000  -0.3524   0.10074   0.09343  -0.0432  1.0000  0.0663  -1.9938   0.0000   0.1152
  -8.750  -0.3601   0.09766   0.09044  -0.0429  1.0000  0.0658  -2.0461   0.0000   0.1191
  -8.500  -0.3706   0.09469   0.08758  -0.0424  1.0000  0.0654  -2.1037   0.0000   0.1247
  -8.250  -0.3843   0.09190   0.08491  -0.0413  1.0000  0.0650  -2.1663   0.0000   0.1322
  -8.000  -0.4021   0.08928   0.08242  -0.0398  1.0000  0.0646  -2.2365   0.0000   0.1415
  -7.750  -0.4190   0.08618   0.07944  -0.0392  1.0000  0.0642  -2.3141   0.0000   0.1475
  -7.500  -0.4334   0.08250   0.07585  -0.0396  1.0000  0.0639  -2.3976   0.0000   0.1502
  -7.250  -0.4453   0.07859   0.07199  -0.0404  1.0000  0.0641  -2.4751   0.0000   0.1514
  -7.000  -0.4538   0.07466   0.06808  -0.0414  1.0000  0.0649  -2.5381   0.0000   0.1513
  -6.750  -0.4597   0.07040   0.06377  -0.0427  1.0000  0.0663  -2.6022   0.0000   0.1499
  -6.500  -0.4635   0.06524   0.05848  -0.0450  1.0000  0.0682  -2.6905   0.0000   0.1460
  -6.250  -0.4566   0.05769   0.05047  -0.0508  0.9974  0.0707  -2.8323   0.0000   0.1317
  -6.000  -0.4300   0.04940   0.04128  -0.0587  0.9906  0.0725  -2.9504   0.0000   0.1059
  -5.750  -0.4003   0.04599   0.03764  -0.0620  0.9842  0.0743  -2.8544   0.0000   0.0873
  -5.500  -0.3671   0.04312   0.03445  -0.0653  0.9781  0.0768  -2.7441   0.0000   0.0638
  -5.250  -0.3349   0.04010   0.03097  -0.0682  0.9708  0.0802  -2.6541   0.0000   0.0376
  -5.000  -0.2967   0.03695   0.02695  -0.0719  0.9651  0.0872  -2.5872   0.0000  -0.0019
  -4.750  -0.2661   0.03611   0.02622  -0.0734  0.9569  0.0935  -2.4393   0.0000  -0.0359
  -4.500  -0.2294   0.03414   0.02367  -0.0759  0.9497  0.1000  -2.3535   0.0000  -0.0917
  -4.250  -0.1892   0.03244   0.02167  -0.0787  0.9444  0.1060  -2.2415   0.0000  -0.1788
  -4.000  -0.1609   0.03159   0.02068  -0.0793  0.9343  0.1146  -2.1269   0.0000  -0.2567
  -3.750  -0.1230   0.03069   0.01967  -0.0816  0.9270  0.1266  -1.9878   0.0000  -0.4306
  -3.500  -0.0878   0.02971   0.01836  -0.0830  0.9193  0.1377  -1.8739   0.0000  -0.7179
  -3.250  -0.0569   0.02907   0.01778  -0.0839  0.9097  0.1508  -1.7436   0.0000  -1.2551
  -3.000  -0.0170   0.02838   0.01704  -0.0863  0.9031  0.1696  -1.5991   0.0000  -4.9235
  -2.750   0.0120   0.02784   0.01640  -0.0865  0.8929  0.1865  -1.4854   0.0000   7.5934
  -2.500   0.0464   0.02734   0.01589  -0.0879  0.8840  0.2116  -1.3706   0.0000   2.1727
  -2.250   0.0883   0.02674   0.01526  -0.0904  0.8782  0.2436  -1.2509   0.0000   1.2881
  -2.000   0.1131   0.02639   0.01502  -0.0901  0.8665  0.2731  -1.1599   0.0000   1.0557
  -1.750   0.1478   0.02589   0.01462  -0.0914  0.8583  0.3171  -1.0524   0.0000   0.8744
  -1.500   0.1860   0.02515   0.01415  -0.0932  0.8525  0.3772  -0.9389   0.0000   0.7551
  -0.750   0.2830   0.02281   0.01346  -0.0929  0.8260  1.0000  -0.6713   0.0000   0.5793
  -0.500   0.3035   0.02309   0.01348  -0.0918  0.8120  1.0000  -0.6426   0.0000   0.5530
  -0.250   0.3375   0.02309   0.01321  -0.0928  0.8034  1.0000  -0.6662   0.0000   0.5247
   0.000   0.3738   0.02303   0.01290  -0.0940  0.7964  1.0000  -0.6916   0.0000   0.5008
   0.250   0.3933   0.02338   0.01310  -0.0927  0.7821  1.0000  -0.7061   0.0000   0.4847
   0.500   0.4283   0.02331   0.01284  -0.0936  0.7740  1.0000  -0.7324   0.0000   0.4671
   0.750   0.4552   0.02350   0.01289  -0.0934  0.7635  1.0000  -0.7536   0.0000   0.4534
   1.000   0.4809   0.02373   0.01299  -0.0930  0.7520  1.0000  -0.7739   0.0000   0.4413
   1.250   0.5155   0.02367   0.01279  -0.0938  0.7446  1.0000  -0.8013   0.0000   0.4295
   1.500   0.5390   0.02402   0.01304  -0.0931  0.7331  1.0000  -0.8218   0.0000   0.4200
   1.750   0.5658   0.02423   0.01316  -0.0928  0.7223  1.0000  -0.8450   0.0000   0.4110
   2.000   0.6003   0.02416   0.01298  -0.0935  0.7152  1.0000  -0.8746   0.0000   0.4024
   2.250   0.6214   0.02466   0.01343  -0.0925  0.7036  1.0000  -0.8952   0.0000   0.3953
   2.500   0.6477   0.02493   0.01365  -0.0922  0.6933  1.0000  -0.9201   0.0000   0.3884
   2.750   0.6817   0.02488   0.01357  -0.0927  0.6861  1.0000  -0.9526   0.0000   0.3819
   3.000   0.7023   0.02545   0.01412  -0.0917  0.6749  1.0000  -0.9750   0.0000   0.3762
   3.250   0.7271   0.02581   0.01446  -0.0912  0.6647  1.0000  -1.0017   0.0000   0.3708
   3.500   0.7599   0.02584   0.01443  -0.0916  0.6575  1.0000  -1.0372   0.0000   0.3656
   3.750   0.7819   0.02639   0.01499  -0.0908  0.6473  1.0000  -1.0644   0.0000   0.3609
   4.000   0.8040   0.02690   0.01553  -0.0899  0.6367  1.0000  -1.0933   0.0000   0.3564
   4.250   0.8354   0.02700   0.01560  -0.0901  0.6291  1.0000  -1.1340   0.0000   0.3522
   4.500   0.8606   0.02743   0.01614  -0.0896  0.6203  1.0000  -1.1728   0.0000   0.3482
   4.750   0.8785   0.02818   0.01696  -0.0883  0.6091  1.0000  -1.2099   0.0000   0.3443
   5.000   0.9083   0.02834   0.01714  -0.0883  0.6009  1.0000  -1.2737   0.0000   0.3407
   5.250   0.9381   0.02857   0.01738  -0.0883  0.5932  1.0000  -1.3497   0.0000   0.3373
   5.500   0.9509   0.02958   0.01852  -0.0864  0.5812  1.0000  -1.4046   0.0000   0.3338
   5.750   0.9790   0.02981   0.01879  -0.0861  0.5724  1.0000  -1.4938   0.0000   0.3306
   6.000   1.0116   0.02989   0.01888  -0.0864  0.5648  1.0000  -1.5980   0.0000   0.3277
   6.250   1.0206   0.03109   0.02026  -0.0841  0.5522  1.0000  -1.6626   0.0000   0.3244
   6.500   1.0482   0.03131   0.02064  -0.0837  0.5429  1.0000  -1.7692   0.0000   0.3215
   6.750   1.0768   0.03154   0.02092  -0.0834  0.5339  1.0000  -1.8798   0.0000   0.3188
   7.000   1.0870   0.03263   0.02220  -0.0811  0.5212  1.0000  -1.9595   0.0000   0.3157
   7.250   1.1185   0.03257   0.02218  -0.0810  0.5113  1.0000  -2.1001   0.0000   0.3131
   7.500   1.1329   0.03343   0.02319  -0.0791  0.4991  1.0000  -2.1969   0.0000   0.3102
   7.750   1.1535   0.03382   0.02370  -0.0777  0.4864  1.0000  -2.3129   0.0000   0.3074
   8.000   1.1776   0.03401   0.02396  -0.0767  0.4740  1.0000  -2.4411   0.0000   0.3048
   8.250   1.1901   0.03468   0.02478  -0.0743  0.4590  1.0000  -2.5392   0.0000   0.3018
   8.500   1.2102   0.03487   0.02514  -0.0727  0.4443  1.0000  -2.6630   0.0000   0.2990
   8.750   1.2244   0.03524   0.02561  -0.0703  0.4276  1.0000  -2.7890   0.0000   0.2960
   9.000   1.2315   0.03602   0.02653  -0.0674  0.4109  1.0000  -2.8917   0.0000   0.2929


