xflr5 v6.48

 Calculated polar for: NACA 0006

 1 1 Reynolds number fixed          Mach number fixed         

 xtrf =   1.000 (top)        1.000 (bottom)
 Mach =   0.000     Re =     0.050 e 6     Ncrit =   5.000

  alpha     CL        CD       CDp       Cm    Top Xtr Bot Xtr   Cpmin    Chinge    XCp    
 ------- -------- --------- --------- -------- ------- ------- -------- --------- ---------
  -9.000  -0.6970   0.09840   0.09158   0.0110  1.0000  0.0359  -2.6422   0.0000   0.2619
  -8.750  -0.6963   0.09366   0.08688   0.0087  1.0000  0.0354  -2.6760   0.0000   0.2587
  -8.500  -0.6970   0.08842   0.08167   0.0050  1.0000  0.0349  -2.7410   0.0000   0.2536
  -8.250  -0.6988   0.08309   0.07635   0.0014  1.0000  0.0344  -2.8220   0.0000   0.2485
  -8.000  -0.6992   0.07771   0.07092  -0.0019  1.0000  0.0339  -2.9090   0.0000   0.2440
  -7.750  -0.6988   0.07235   0.06546  -0.0047  1.0000  0.0334  -3.0000   0.0000   0.2400
  -7.500  -0.6966   0.06703   0.05996  -0.0070  1.0000  0.0332  -3.0923   0.0000   0.2367
  -7.250  -0.6921   0.06181   0.05448  -0.0089  1.0000  0.0335  -3.1821   0.0000   0.2340
  -7.000  -0.6848   0.05671   0.04899  -0.0102  1.0000  0.0343  -3.2750   0.0000   0.2321
  -6.750  -0.6744   0.05178   0.04348  -0.0109  1.0000  0.0356  -3.3863   0.0000   0.2308
  -6.500  -0.6613   0.04779   0.03918  -0.0110  1.0000  0.0380  -3.3535   0.0000   0.2304
  -6.250  -0.6446   0.04448   0.03558  -0.0108  1.0000  0.0403  -3.2889   0.0000   0.2304
  -6.000  -0.6258   0.04043   0.03084  -0.0103  1.0000  0.0408  -3.3261   0.0000   0.2307
  -5.750  -0.6046   0.03683   0.02667  -0.0096  1.0000  0.0417  -3.3476   0.0000   0.2313
  -5.500  -0.5813   0.03362   0.02290  -0.0088  1.0000  0.0431  -3.3447   0.0000   0.2321
  -5.250  -0.5562   0.03081   0.01954  -0.0079  1.0000  0.0452  -3.3161   0.0000   0.2332
  -5.000  -0.5312   0.02841   0.01684  -0.0070  1.0000  0.0491  -3.2191   0.0000   0.2342
  -4.750  -0.5063   0.02686   0.01502  -0.0064  1.0000  0.0584  -3.0538   0.0000   0.2350
  -4.500  -0.4818   0.02489   0.01302  -0.0054  1.0000  0.0649  -2.9103   0.0000   0.2364
  -4.250  -0.4568   0.02326   0.01118  -0.0043  1.0000  0.0744  -2.7718   0.0000   0.2382
  -4.000  -0.4323   0.02184   0.00977  -0.0038  1.0000  0.0964  -2.5873   0.0000   0.2391
  -3.750  -0.4078   0.02019   0.00824  -0.0033  1.0000  0.1367  -2.4376   0.0000   0.2399
  -3.500  -0.3885   0.01791   0.00696  -0.0025  1.0000  0.3042  -2.2877   0.0000   0.2416
  -3.250  -0.3749   0.01624   0.00660   0.0008  1.0000  0.5676  -2.0959   0.0000   0.2503
  -3.000  -0.3540   0.01553   0.00664   0.0052  1.0000  0.7833  -1.8503   0.0000   0.2631
  -2.750  -0.2975   0.01553   0.00639   0.0025  1.0000  0.9281  -1.4608   0.0000   0.2565
  -2.500  -0.2264   0.01534   0.00565  -0.0059  1.0000  0.9887  -1.1322   0.0000   0.2223
  -2.250  -0.1931   0.01504   0.00505  -0.0078  1.0000  1.0000  -0.9515   0.0000   0.2080
  -2.000  -0.1721   0.01482   0.00450  -0.0071  1.0000  1.0000  -0.8355   0.0000   0.2072
  -1.750  -0.1510   0.01464   0.00414  -0.0063  1.0000  1.0000  -0.6943   0.0000   0.2065
  -1.500  -0.1296   0.01450   0.00384  -0.0055  1.0000  1.0000  -0.5871   0.0000   0.2058
  -1.250  -0.1080   0.01439   0.00360  -0.0047  1.0000  1.0000  -0.4981   0.0000   0.2052
  -1.000  -0.0865   0.01431   0.00341  -0.0038  1.0000  1.0000  -0.4181   0.0000   0.2048
  -0.750  -0.0649   0.01425   0.00326  -0.0029  1.0000  1.0000  -0.3473   0.0000   0.2046
  -0.500  -0.0433   0.01420   0.00317  -0.0019  1.0000  1.0000  -0.2905   0.0000   0.2045
  -0.250  -0.0217   0.01418   0.00311  -0.0010  1.0000  1.0000  -0.2473   0.0000   0.2045
   0.000  -0.0000   0.01417   0.00310   0.0000  1.0000  1.0000  -0.2138   0.0000   0.4301
   0.250   0.0217   0.01418   0.00311   0.0010  1.0000  1.0000  -0.2473   0.0000   0.2045
   0.500   0.0433   0.01420   0.00317   0.0019  1.0000  1.0000  -0.2905   0.0000   0.2045
   0.750   0.0649   0.01425   0.00326   0.0029  1.0000  1.0000  -0.3473   0.0000   0.2046
   1.000   0.0865   0.01431   0.00340   0.0038  1.0000  1.0000  -0.4181   0.0000   0.2048
   1.250   0.1080   0.01439   0.00360   0.0047  1.0000  1.0000  -0.4981   0.0000   0.2052
   1.500   0.1296   0.01450   0.00384   0.0055  1.0000  1.0000  -0.5871   0.0000   0.2059
   1.750   0.1510   0.01464   0.00414   0.0063  1.0000  1.0000  -0.6944   0.0000   0.2066
   2.000   0.1722   0.01482   0.00450   0.0071  1.0000  1.0000  -0.8356   0.0000   0.2073
   2.250   0.1931   0.01504   0.00505   0.0078  1.0000  1.0000  -0.9517   0.0000   0.2080
   2.500   0.2264   0.01534   0.00564   0.0059  0.9888  1.0000  -1.1322   0.0000   0.2223
   2.750   0.2975   0.01553   0.00639  -0.0025  0.9282  1.0000  -1.4608   0.0000   0.2565
   3.000   0.3540   0.01553   0.00664  -0.0052  0.7833  1.0000  -1.8503   0.0000   0.2631
   3.250   0.3749   0.01624   0.00660  -0.0008  0.5676  1.0000  -2.0958   0.0000   0.2503
   3.500   0.3885   0.01791   0.00696   0.0025  0.3043  1.0000  -2.2877   0.0000   0.2416
   3.750   0.4078   0.02019   0.00824   0.0033  0.1367  1.0000  -2.4376   0.0000   0.2399
   4.000   0.4323   0.02184   0.00977   0.0038  0.0964  1.0000  -2.5873   0.0000   0.2391
   4.250   0.4568   0.02326   0.01118   0.0043  0.0744  1.0000  -2.7718   0.0000   0.2382
   4.500   0.4818   0.02489   0.01302   0.0054  0.0649  1.0000  -2.9103   0.0000   0.2364
   4.750   0.5063   0.02686   0.01502   0.0064  0.0584  1.0000  -3.0538   0.0000   0.2350
   5.000   0.5312   0.02841   0.01684   0.0070  0.0491  1.0000  -3.2191   0.0000   0.2342
   5.250   0.5562   0.03081   0.01954   0.0079  0.0452  1.0000  -3.3161   0.0000   0.2332
   5.500   0.5813   0.03362   0.02290   0.0088  0.0431  1.0000  -3.3447   0.0000   0.2321
   5.750   0.6046   0.03683   0.02667   0.0096  0.0417  1.0000  -3.3476   0.0000   0.2313
   6.000   0.6259   0.04043   0.03084   0.0103  0.0408  1.0000  -3.3261   0.0000   0.2307
   6.250   0.6446   0.04448   0.03558   0.0108  0.0403  1.0000  -3.2889   0.0000   0.2304
   6.500   0.6613   0.04779   0.03918   0.0110  0.0380  1.0000  -3.3539   0.0000   0.2304
   6.750   0.6745   0.05179   0.04349   0.0108  0.0356  1.0000  -3.3862   0.0000   0.2308
   7.000   0.6849   0.05672   0.04900   0.0101  0.0343  1.0000  -3.2749   0.0000   0.2321
   7.250   0.6922   0.06182   0.05450   0.0088  0.0335  1.0000  -3.1820   0.0000   0.2341
   7.500   0.6968   0.06704   0.05998   0.0070  0.0332  1.0000  -3.0921   0.0000   0.2368
   7.750   0.6990   0.07237   0.06548   0.0046  0.0334  1.0000  -2.9998   0.0000   0.2401
   8.000   0.6995   0.07774   0.07095   0.0018  0.0339  1.0000  -2.9088   0.0000   0.2441
   8.250   0.6992   0.08313   0.07639  -0.0015  0.0344  1.0000  -2.8219   0.0000   0.2486
   8.500   0.6975   0.08846   0.08172  -0.0051  0.0349  1.0000  -2.7410   0.0000   0.2537
   8.750   0.6970   0.09371   0.08692  -0.0088  0.0354  1.0000  -2.6764   0.0000   0.2589
   9.000   0.6978   0.09845   0.09163  -0.0111  0.0359  1.0000  -2.6434   0.0000   0.2620


