xflr5 v6.48

 Calculated polar for: NACA 0006

 1 1 Reynolds number fixed          Mach number fixed

 xtrf =   1.000 (top)        1.000 (bottom)
 Mach =   0.000     Re =     0.070 e 6     Ncrit =   5.000

  alpha     CL        CD       CDp       Cm    Top Xtr Bot Xtr   Cpmin    Chinge    XCp
  -8.75   -0.702400   +0.088920    0.000000    0.000000   0.000000   0.000000
  -8.50   -0.703300   +0.084080    0.000000    0.000000   0.000000   0.000000
  -8.25   -0.704800   +0.079070    0.000000    0.000000   0.000000   0.000000
  -8.00   -0.705000   +0.073820    0.000000    0.000000   0.000000   0.000000
  -7.75   -0.704000   +0.068510    0.000000    0.000000   0.000000   0.000000
  -7.50   -0.701000   +0.063200    0.000000    0.000000   0.000000   0.000000
  -7.25   -0.695600   +0.057950    0.000000    0.000000   0.000000   0.000000
  -7.00   -0.687400   +0.052820    0.000000    0.000000   0.000000   0.000000
  -6.75   -0.676200   +0.047920    0.000000    0.000000   0.000000   0.000000
  -6.50   -0.662100   +0.043340    0.000000    0.000000   0.000000   0.000000
  -6.25   -0.645200   +0.039100    0.000000    0.000000   0.000000   0.000000
  -6.00   -0.625300   +0.035370    0.000000    0.000000   0.000000   0.000000
  -5.75   -0.605100   +0.032860    0.000000    0.000000   0.000000   0.000000
  -5.50   -0.582200   +0.030480    0.000000    0.000000   0.000000   0.000000
  -5.25   -0.557300   +0.027730    0.000000    0.000000   0.000000   0.000000
  -5.00   -0.531600   +0.025510    0.000000    0.000000   0.000000   0.000000
  -4.75   -0.508100   +0.023380    0.000000    0.000000   0.000000   0.000000
  -4.50   -0.483500   +0.022060    0.000000    0.000000   0.000000   0.000000
  -4.25   -0.460100   +0.020700    0.000000    0.000000   0.000000   0.000000
  -4.00   -0.436600   +0.019320    0.000000    0.000000   0.000000   0.000000
  -3.75   -0.412600   +0.018170    0.000000    0.000000   0.000000   0.000000
  -3.50   -0.389100   +0.016680    0.000000    0.000000   0.000000   0.000000
  -3.25   -0.367800   +0.014860    0.000000    0.000000   0.000000   0.000000
  -3.00   -0.350800   +0.013640    0.000000    0.000000   0.000000   0.000000
  -2.75   -0.331400   +0.012990    0.000000    0.000000   0.000000   0.000000
  -2.50   -0.293100   +0.012860    0.000000    0.000000   0.000000   0.000000
  -2.25   -0.240600   +0.012820    0.000000    0.000000   0.000000   0.000000
  -2.00   -0.183300   +0.012680    0.000000    0.000000   0.000000   0.000000
  -1.75   -0.151100   +0.012500    0.000000    0.000000   0.000000   0.000000
  -1.50   -0.129500   +0.012360    0.000000    0.000000   0.000000   0.000000
  -1.25   -0.107900   +0.012250    0.000000    0.000000   0.000000   0.000000
  -1.00   -0.086200   +0.012160    0.000000    0.000000   0.000000   0.000000
  -0.75   -0.064600   +0.012100    0.000000    0.000000   0.000000   0.000000
  -0.50   -0.043000   +0.012060    0.000000    0.000000   0.000000   0.000000
  -0.25   -0.021500   +0.012030    0.000000    0.000000   0.000000   0.000000
  +0.00   -0.000000   +0.012020    0.000000    0.000000   0.000000   0.000000
  +0.25   +0.021500   +0.012030    0.000000    0.000000   0.000000   0.000000
  +0.50   +0.043100   +0.012060    0.000000    0.000000   0.000000   0.000000
  +0.75   +0.064600   +0.012100    0.000000    0.000000   0.000000   0.000000
  +1.00   +0.086200   +0.012160    0.000000    0.000000   0.000000   0.000000
  +1.25   +0.107900   +0.012250    0.000000    0.000000   0.000000   0.000000
  +1.50   +0.129500   +0.012360    0.000000    0.000000   0.000000   0.000000
  +1.75   +0.151100   +0.012500    0.000000    0.000000   0.000000   0.000000
  +2.00   +0.183300   +0.012680    0.000000    0.000000   0.000000   0.000000
  +2.25   +0.240600   +0.012820    0.000000    0.000000   0.000000   0.000000
  +2.50   +0.293100   +0.012860    0.000000    0.000000   0.000000   0.000000
  +2.75   +0.331400   +0.012990    0.000000    0.000000   0.000000   0.000000
  +3.00   +0.350700   +0.013640    0.000000    0.000000   0.000000   0.000000
  +3.25   +0.367800   +0.014860    0.000000    0.000000   0.000000   0.000000
  +3.50   +0.389100   +0.016680    0.000000    0.000000   0.000000   0.000000
  +3.75   +0.412600   +0.018170    0.000000    0.000000   0.000000   0.000000
  +4.00   +0.436600   +0.019320    0.000000    0.000000   0.000000   0.000000
  +4.25   +0.460100   +0.020700    0.000000    0.000000   0.000000   0.000000
  +4.50   +0.483500   +0.022060    0.000000    0.000000   0.000000   0.000000
  +4.75   +0.508100   +0.023380    0.000000    0.000000   0.000000   0.000000
  +5.00   +0.531600   +0.025510    0.000000    0.000000   0.000000   0.000000
  +5.25   +0.557300   +0.027730    0.000000    0.000000   0.000000   0.000000
  +5.50   +0.582200   +0.030480    0.000000    0.000000   0.000000   0.000000
  +5.75   +0.605200   +0.032860    0.000000    0.000000   0.000000   0.000000
  +6.00   +0.625300   +0.035370    0.000000    0.000000   0.000000   0.000000
  +6.25   +0.645200   +0.039100    0.000000    0.000000   0.000000   0.000000
  +6.50   +0.662100   +0.043340    0.000000    0.000000   0.000000   0.000000
  +6.75   +0.676300   +0.047920    0.000000    0.000000   0.000000   0.000000
  +7.00   +0.687500   +0.052830    0.000000    0.000000   0.000000   0.000000
  +7.25   +0.695700   +0.057960    0.000000    0.000000   0.000000   0.000000
  +7.50   +0.701200   -0.076482    0.000000    0.000000   0.000000   0.000000
  +7.75   +0.704200   +0.068530    0.000000    0.000000   0.000000   0.000000
  +8.00   +0.705300   +0.073850    0.000000    0.000000   0.000000   0.000000
  +8.25   +0.705100   +0.079100    0.000000    0.000000   0.000000   0.000000
  +8.50   +0.703800   +0.084110    0.000000    0.000000   0.000000   0.000000
  +8.75   +0.703000   +0.088940    0.000000    0.000000   0.000000   0.000000
