xflr5 v6.48

 Calculated polar for: NACA 0006

 1 1 Reynolds number fixed          Mach number fixed         

 xtrf =   1.000 (top)        1.000 (bottom)
 Mach =   0.000     Re =     0.100 e 6     Ncrit =   5.000

  alpha     CL        CD       CDp       Cm    Top Xtr Bot Xtr   Cpmin    Chinge    XCp    
 ------- -------- --------- --------- -------- ------- ------- -------- --------- ---------
  -9.000  -0.6974   0.09785   0.09300   0.0183  1.0000  0.0234  -2.5059   0.0000   0.2723
  -8.750  -0.6995   0.09252   0.08772   0.0150  1.0000  0.0225  -2.5890   0.0000   0.2677
  -8.500  -0.7031   0.08656   0.08182   0.0105  1.0000  0.0218  -2.7124   0.0000   0.2612
  -8.250  -0.7087   0.07937   0.07465   0.0033  1.0000  0.0210  -2.9092   0.0000   0.2512
  -8.000  -0.7148   0.06766   0.06269  -0.0061  1.0000  0.0190  -3.5402   0.0000   0.2379
  -7.750  -0.7111   0.06284   0.05766  -0.0077  1.0000  0.0186  -3.5600   0.0000   0.2356
  -7.500  -0.7075   0.05783   0.05246  -0.0089  1.0000  0.0184  -3.5891   0.0000   0.2339
  -7.250  -0.7011   0.05284   0.04719  -0.0098  1.0000  0.0182  -3.6511   0.0000   0.2326
  -7.000  -0.6918   0.04795   0.04195  -0.0102  1.0000  0.0180  -3.7178   0.0000   0.2319
  -6.750  -0.6796   0.04326   0.03683  -0.0102  1.0000  0.0178  -3.7861   0.0000   0.2317
  -6.500  -0.6647   0.03885   0.03190  -0.0098  1.0000  0.0178  -3.8523   0.0000   0.2320
  -6.250  -0.6471   0.03480   0.02728  -0.0091  1.0000  0.0178  -3.9124   0.0000   0.2328
  -6.000  -0.6269   0.03119   0.02306  -0.0082  1.0000  0.0182  -3.9603   0.0000   0.2338
  -5.750  -0.6043   0.02818   0.01942  -0.0072  1.0000  0.0188  -3.9818   0.0000   0.2351
  -5.500  -0.5822   0.02540   0.01627  -0.0065  1.0000  0.0201  -3.8793   0.0000   0.2358
  -5.250  -0.5581   0.02434   0.01501  -0.0062  1.0000  0.0247  -3.6293   0.0000   0.2362
  -5.000  -0.5333   0.02242   0.01277  -0.0053  1.0000  0.0278  -3.5256   0.0000   0.2373
  -4.750  -0.5093   0.02068   0.01095  -0.0046  1.0000  0.0300  -3.3707   0.0000   0.2384
  -4.500  -0.4850   0.01927   0.00942  -0.0037  1.0000  0.0332  -3.2082   0.0000   0.2398
  -4.250  -0.4613   0.01800   0.00803  -0.0029  1.0000  0.0378  -3.0339   0.0000   0.2415
  -4.000  -0.4371   0.01710   0.00709  -0.0023  1.0000  0.0485  -2.8006   0.0000   0.2426
  -3.750  -0.4130   0.01609   0.00602  -0.0015  1.0000  0.0601  -2.6045   0.0000   0.2442
  -3.500  -0.3891   0.01506   0.00505  -0.0009  1.0000  0.0914  -2.4069   0.0000   0.2457
  -3.250  -0.3664   0.01379   0.00435  -0.0004  1.0000  0.1963  -2.1751   0.0000   0.2471
  -3.000  -0.3456   0.01248   0.00394   0.0004  1.0000  0.3908  -1.9343   0.0000   0.2495
  -2.750  -0.3253   0.01150   0.00373   0.0021  1.0000  0.5701  -1.6936   0.0000   0.2548
  -2.500  -0.3053   0.01087   0.00367   0.0047  1.0000  0.7199  -1.4617   0.0000   0.2638
  -2.250  -0.2791   0.01061   0.00367   0.0065  1.0000  0.8382  -1.2728   0.0000   0.2719
  -2.000  -0.2386   0.01057   0.00357   0.0049  1.0000  0.9172  -1.0479   0.0000   0.2693
  -1.750  -0.1925   0.01054   0.00328   0.0015  1.0000  0.9625  -0.8455   0.0000   0.2564
  -1.500  -0.1423   0.01046   0.00303  -0.0032  1.0000  0.9905  -0.6269   0.0000   0.2258
  -1.250  -0.1077   0.01035   0.00280  -0.0050  1.0000  1.0000  -0.5032   0.0000   0.2016
  -1.000  -0.0858   0.01026   0.00264  -0.0042  1.0000  1.0000  -0.4221   0.0000   0.2001
  -0.750  -0.0641   0.01020   0.00252  -0.0032  1.0000  1.0000  -0.3476   0.0000   0.1985
  -0.500  -0.0426   0.01016   0.00243  -0.0022  1.0000  1.0000  -0.2900   0.0000   0.1974
  -0.250  -0.0213   0.01013   0.00239  -0.0011  1.0000  1.0000  -0.2463   0.0000   0.1968
   0.000  -0.0000   0.01012   0.00238   0.0000  1.0000  1.0000  -0.2126   0.0000   0.4344
   0.250   0.0213   0.01013   0.00239   0.0011  1.0000  1.0000  -0.2463   0.0000   0.1968
   0.500   0.0426   0.01016   0.00243   0.0022  1.0000  1.0000  -0.2900   0.0000   0.1974
   0.750   0.0641   0.01020   0.00252   0.0032  1.0000  1.0000  -0.3476   0.0000   0.1985
   1.000   0.0858   0.01026   0.00264   0.0042  1.0000  1.0000  -0.4222   0.0000   0.2001
   1.250   0.1077   0.01035   0.00280   0.0050  1.0000  1.0000  -0.5032   0.0000   0.2017
   1.500   0.1423   0.01045   0.00303   0.0032  0.9905  1.0000  -0.6269   0.0000   0.2258
   1.750   0.1925   0.01053   0.00328  -0.0015  0.9626  1.0000  -0.8455   0.0000   0.2564
   2.000   0.2386   0.01057   0.00357  -0.0049  0.9172  1.0000  -1.0479   0.0000   0.2693
   2.250   0.2791   0.01061   0.00367  -0.0065  0.8381  1.0000  -1.2728   0.0000   0.2719
   2.500   0.3053   0.01087   0.00367  -0.0047  0.7200  1.0000  -1.4617   0.0000   0.2638
   2.750   0.3253   0.01150   0.00373  -0.0021  0.5701  1.0000  -1.6935   0.0000   0.2548
   3.000   0.3456   0.01248   0.00394  -0.0004  0.3908  1.0000  -1.9342   0.0000   0.2495
   3.250   0.3664   0.01379   0.00435   0.0004  0.1964  1.0000  -2.1751   0.0000   0.2471
   3.500   0.3891   0.01506   0.00505   0.0009  0.0914  1.0000  -2.4068   0.0000   0.2457
   3.750   0.4130   0.01609   0.00602   0.0015  0.0601  1.0000  -2.6044   0.0000   0.2442
   4.000   0.4371   0.01710   0.00709   0.0023  0.0485  1.0000  -2.8005   0.0000   0.2426
   4.250   0.4613   0.01800   0.00803   0.0029  0.0378  1.0000  -3.0339   0.0000   0.2415
   4.500   0.4850   0.01927   0.00942   0.0037  0.0332  1.0000  -3.2082   0.0000   0.2398
   4.750   0.5093   0.02068   0.01095   0.0046  0.0300  1.0000  -3.3707   0.0000   0.2384
   5.000   0.5333   0.02242   0.01277   0.0053  0.0278  1.0000  -3.5257   0.0000   0.2373
   5.250   0.5582   0.02434   0.01501   0.0062  0.0247  1.0000  -3.6293   0.0000   0.2362
   5.500   0.5822   0.02540   0.01627   0.0065  0.0201  1.0000  -3.8794   0.0000   0.2359
   5.750   0.6043   0.02818   0.01942   0.0072  0.0188  1.0000  -3.9819   0.0000   0.2351
   6.000   0.6269   0.03120   0.02306   0.0082  0.0182  1.0000  -3.9603   0.0000   0.2338
   6.250   0.6471   0.03480   0.02728   0.0091  0.0178  1.0000  -3.9124   0.0000   0.2328
   6.500   0.6647   0.03885   0.03191   0.0098  0.0178  1.0000  -3.8522   0.0000   0.2320
   6.750   0.6797   0.04326   0.03683   0.0102  0.0178  1.0000  -3.7860   0.0000   0.2317
   7.000   0.6918   0.04796   0.04196   0.0102  0.0180  1.0000  -3.7178   0.0000   0.2319
   7.250   0.7012   0.05284   0.04720   0.0098  0.0182  1.0000  -3.6510   0.0000   0.2326
   7.500   0.7076   0.05785   0.05248   0.0089  0.0184  1.0000  -3.5890   0.0000   0.2339
   7.750   0.7113   0.06286   0.05768   0.0076  0.0186  1.0000  -3.5604   0.0000   0.2357
   8.250   0.7091   0.07944   0.07473  -0.0034  0.0210  1.0000  -2.9072   0.0000   0.2514
   8.500   0.7036   0.08664   0.08189  -0.0106  0.0218  1.0000  -2.7114   0.0000   0.2615
   8.750   0.7002   0.09259   0.08779  -0.0152  0.0226  1.0000  -2.5889   0.0000   0.2679
   9.000   0.6982   0.09792   0.09307  -0.0185  0.0234  1.0000  -2.5066   0.0000   0.2726


