xflr5 v6.48

 Calculated polar for: NACA 0006

 1 1 Reynolds number fixed          Mach number fixed

 xtrf =   1.000 (top)        1.000 (bottom)
 Mach =   0.000     Re =     0.090 e 6     Ncrit =   5.000

  alpha     CL        CD       CDp       Cm    Top Xtr Bot Xtr   Cpmin    Chinge    XCp
  -9.00   -0.697100   +0.097750    0.000000    0.000000   0.000000   0.000000
  -8.75   -0.698400   +0.092690    0.000000    0.000000   0.000000   0.000000
  -8.50   -0.700800   +0.087190    0.000000    0.000000   0.000000   0.000000
  -8.25   -0.704700   +0.080930    0.000000    0.000000   0.000000   0.000000
  -8.00   -0.706600   +0.074260    0.000000    0.000000   0.000000   0.000000
  -7.75   -0.707200   +0.067480    0.000000    0.000000   0.000000   0.000000
  -7.50   -0.706500   +0.060270    0.000000    0.000000   0.000000   0.000000
  -7.25   -0.703100   +0.052600    0.000000    0.000000   0.000000   0.000000
  -7.00   -0.691800   +0.047830    0.000000    0.000000   0.000000   0.000000
  -6.75   -0.678300   +0.043550    0.000000    0.000000   0.000000   0.000000
  -6.25   -0.646300   +0.035270    0.000000    0.000000   0.000000   0.000000
  -6.00   -0.627000   +0.031780    0.000000    0.000000   0.000000   0.000000
  -5.75   -0.605400   +0.029050    0.000000    0.000000   0.000000   0.000000
  -5.50   -0.582200   +0.027200    0.000000    0.000000   0.000000   0.000000
  -5.25   -0.557800   +0.025250    0.000000    0.000000   0.000000   0.000000
  -5.00   -0.533600   +0.023290    0.000000    0.000000   0.000000   0.000000
  -4.75   -0.508800   +0.021540    0.000000    0.000000   0.000000   0.000000
  -4.50   -0.484300   +0.020060    0.000000    0.000000   0.000000   0.000000
  -4.25   -0.461000   +0.018800    0.000000    0.000000   0.000000   0.000000
  -4.00   -0.437200   +0.017710    0.000000    0.000000   0.000000   0.000000
  -3.75   -0.413200   +0.016630    0.000000    0.000000   0.000000   0.000000
  -3.25   -0.367300   +0.014090    0.000000    0.000000   0.000000   0.000000
  -3.00   -0.346600   +0.012780    0.000000    0.000000   0.000000   0.000000
  -2.75   -0.327200   +0.011860    0.000000    0.000000   0.000000   0.000000
  -2.50   -0.306500   +0.011340    0.000000    0.000000   0.000000   0.000000
  -2.25   -0.273000   +0.011200    0.000000    0.000000   0.000000   0.000000
  -2.00   -0.227100   +0.011180    0.000000    0.000000   0.000000   0.000000
  -1.75   -0.177000   +0.011110    0.000000    0.000000   0.000000   0.000000
  -1.50   -0.129500   +0.010980    0.000000    0.000000   0.000000   0.000000
  -1.25   -0.107700   +0.010870    0.000000    0.000000   0.000000   0.000000
  -1.00   -0.085900   +0.010790    0.000000    0.000000   0.000000   0.000000
  -0.75   -0.064300   +0.010720    0.000000    0.000000   0.000000   0.000000
  -0.50   -0.042800   +0.010680    0.000000    0.000000   0.000000   0.000000
  -0.25   -0.021400   +0.010660    0.000000    0.000000   0.000000   0.000000
  +0.00   -0.000000   +0.010650    0.000000    0.000000   0.000000   0.000000
  +0.25   +0.021400   +0.010660    0.000000    0.000000   0.000000   0.000000
  +0.50   +0.042800   +0.010680    0.000000    0.000000   0.000000   0.000000
  +0.75   +0.064300   +0.010720    0.000000    0.000000   0.000000   0.000000
  +1.00   +0.086000   +0.010790    0.000000    0.000000   0.000000   0.000000
  +1.25   +0.107700   +0.010870    0.000000    0.000000   0.000000   0.000000
  +1.50   +0.129500   +0.010980    0.000000    0.000000   0.000000   0.000000
  +1.75   +0.177000   +0.011110    0.000000    0.000000   0.000000   0.000000
  +2.00   +0.227100   +0.011180    0.000000    0.000000   0.000000   0.000000
  +2.25   +0.273000   +0.011200    0.000000    0.000000   0.000000   0.000000
  +2.50   +0.306500   +0.011340    0.000000    0.000000   0.000000   0.000000
  +2.75   +0.327100   +0.011860    0.000000    0.000000   0.000000   0.000000
  +3.00   +0.346600   +0.012780    0.000000    0.000000   0.000000   0.000000
  +3.25   +0.367300   +0.014090    0.000000    0.000000   0.000000   0.000000
  +3.50   +0.389300   +0.015560    0.000000    0.000000   0.000000   0.000000
  +3.75   +0.413200   +0.016630    0.000000    0.000000   0.000000   0.000000
  +4.00   +0.437200   +0.017710    0.000000    0.000000   0.000000   0.000000
  +4.25   +0.461000   +0.018800    0.000000    0.000000   0.000000   0.000000
  +4.50   +0.484300   +0.020060    0.000000    0.000000   0.000000   0.000000
  +4.75   +0.508800   +0.021540    0.000000    0.000000   0.000000   0.000000
  +5.00   +0.533600   +0.023290    0.000000    0.000000   0.000000   0.000000
  +5.25   +0.557800   +0.025250    0.000000    0.000000   0.000000   0.000000
  +5.50   +0.582200   +0.027200    0.000000    0.000000   0.000000   0.000000
  +5.75   +0.605400   +0.029050    0.000000    0.000000   0.000000   0.000000
  +6.00   +0.627100   +0.031780    0.000000    0.000000   0.000000   0.000000
  +6.25   +0.646300   +0.035270    0.000000    0.000000   0.000000   0.000000
  +6.50   +0.663200   +0.039370    0.000000    0.000000   0.000000   0.000000
  +6.75   +0.678400   +0.043550    0.000000    0.000000   0.000000   0.000000
  +7.25   +0.703200   +0.052610    0.000000    0.000000   0.000000   0.000000
  +7.50   +0.706700   +0.060290    0.000000    0.000000   0.000000   0.000000
  +7.75   +0.707400   +0.067510    0.000000    0.000000   0.000000   0.000000
  +8.00   +0.706900   +0.074300    0.000000    0.000000   0.000000   0.000000
  +8.25   +0.705100   +0.080990    0.000000    0.000000   0.000000   0.000000
  +8.50   +0.701400   +0.087250    0.000000    0.000000   0.000000   0.000000
  +8.75   +0.699100   +0.092760    0.000000    0.000000   0.000000   0.000000
  +9.00   +0.697900   +0.097810    0.000000    0.000000   0.000000   0.000000
