xflr5 v6.48

 Calculated polar for: NACA 0006

 1 1 Reynolds number fixed          Mach number fixed

 xtrf =   1.000 (top)        1.000 (bottom)
 Mach =   0.000     Re =     0.050 e 6     Ncrit =   5.000

  alpha     CL        CD       CDp       Cm    Top Xtr Bot Xtr   Cpmin    Chinge    XCp
  -9.00   -0.697000   +0.098400    0.000000    0.000000   0.000000   0.000000
  -8.75   -0.696300   +0.093660    0.000000    0.000000   0.000000   0.000000
  -8.50   -0.697000   +0.088420    0.000000    0.000000   0.000000   0.000000
  -8.25   -0.698800   +0.083090    0.000000    0.000000   0.000000   0.000000
  -8.00   -0.699200   +0.077710    0.000000    0.000000   0.000000   0.000000
  -7.75   -0.698800   +0.072350    0.000000    0.000000   0.000000   0.000000
  -7.50   -0.696600   +0.067030    0.000000    0.000000   0.000000   0.000000
  -7.25   -0.692100   +0.061810    0.000000    0.000000   0.000000   0.000000
  -7.00   -0.684800   +0.056710    0.000000    0.000000   0.000000   0.000000
  -6.75   -0.674400   +0.051780    0.000000    0.000000   0.000000   0.000000
  -6.50   -0.661300   +0.047790    0.000000    0.000000   0.000000   0.000000
  -6.25   -0.644600   +0.044480    0.000000    0.000000   0.000000   0.000000
  -6.00   -0.625800   +0.040430    0.000000    0.000000   0.000000   0.000000
  -5.75   -0.604600   +0.036830    0.000000    0.000000   0.000000   0.000000
  -5.50   -0.581300   +0.033620    0.000000    0.000000   0.000000   0.000000
  -5.25   -0.556200   +0.030810    0.000000    0.000000   0.000000   0.000000
  -5.00   -0.531200   +0.028410    0.000000    0.000000   0.000000   0.000000
  -4.75   -0.506300   +0.026860    0.000000    0.000000   0.000000   0.000000
  -4.50   -0.481800   +0.024890    0.000000    0.000000   0.000000   0.000000
  -4.25   -0.456800   +0.023260    0.000000    0.000000   0.000000   0.000000
  -4.00   -0.432300   +0.021840    0.000000    0.000000   0.000000   0.000000
  -3.75   -0.407800   +0.020190    0.000000    0.000000   0.000000   0.000000
  -3.50   -0.388500   +0.017910    0.000000    0.000000   0.000000   0.000000
  -3.25   -0.374900   +0.016240    0.000000    0.000000   0.000000   0.000000
  -3.00   -0.354000   +0.015530    0.000000    0.000000   0.000000   0.000000
  -2.75   -0.297500   +0.015530    0.000000    0.000000   0.000000   0.000000
  -2.50   -0.226400   +0.015340    0.000000    0.000000   0.000000   0.000000
  -2.25   -0.193100   +0.015040    0.000000    0.000000   0.000000   0.000000
  -2.00   -0.172100   +0.014820    0.000000    0.000000   0.000000   0.000000
  -1.75   -0.151000   +0.014640    0.000000    0.000000   0.000000   0.000000
  -1.50   -0.129600   +0.014500    0.000000    0.000000   0.000000   0.000000
  -1.25   -0.108000   +0.014390    0.000000    0.000000   0.000000   0.000000
  -1.00   -0.086500   +0.014310    0.000000    0.000000   0.000000   0.000000
  -0.75   -0.064900   +0.014250    0.000000    0.000000   0.000000   0.000000
  -0.50   -0.043300   +0.014200    0.000000    0.000000   0.000000   0.000000
  -0.25   -0.021700   +0.014180    0.000000    0.000000   0.000000   0.000000
  +0.00   -0.000000   +0.014170    0.000000    0.000000   0.000000   0.000000
  +0.25   +0.021700   +0.014180    0.000000    0.000000   0.000000   0.000000
  +0.50   +0.043300   +0.014200    0.000000    0.000000   0.000000   0.000000
  +0.75   +0.064900   +0.014250    0.000000    0.000000   0.000000   0.000000
  +1.00   +0.086500   +0.014310    0.000000    0.000000   0.000000   0.000000
  +1.25   +0.108000   +0.014390    0.000000    0.000000   0.000000   0.000000
  +1.50   +0.129600   +0.014500    0.000000    0.000000   0.000000   0.000000
  +1.75   +0.151000   +0.014640    0.000000    0.000000   0.000000   0.000000
  +2.00   +0.172200   +0.014820    0.000000    0.000000   0.000000   0.000000
  +2.25   +0.193100   +0.015040    0.000000    0.000000   0.000000   0.000000
  +2.50   +0.226400   +0.015340    0.000000    0.000000   0.000000   0.000000
  +2.75   +0.297500   +0.015530    0.000000    0.000000   0.000000   0.000000
  +3.00   +0.354000   +0.015530    0.000000    0.000000   0.000000   0.000000
  +3.25   +0.374900   +0.016240    0.000000    0.000000   0.000000   0.000000
  +3.50   +0.388500   +0.017910    0.000000    0.000000   0.000000   0.000000
  +3.75   +0.407800   +0.020190    0.000000    0.000000   0.000000   0.000000
  +4.00   +0.432300   +0.021840    0.000000    0.000000   0.000000   0.000000
  +4.25   +0.456800   +0.023260    0.000000    0.000000   0.000000   0.000000
  +4.50   +0.481800   +0.024890    0.000000    0.000000   0.000000   0.000000
  +4.75   +0.506300   +0.026860    0.000000    0.000000   0.000000   0.000000
  +5.00   +0.531200   +0.028410    0.000000    0.000000   0.000000   0.000000
  +5.25   +0.556200   +0.030810    0.000000    0.000000   0.000000   0.000000
  +5.50   +0.581300   +0.033620    0.000000    0.000000   0.000000   0.000000
  +5.75   +0.604600   +0.036830    0.000000    0.000000   0.000000   0.000000
  +6.00   +0.625900   +0.040430    0.000000    0.000000   0.000000   0.000000
  +6.25   +0.644600   +0.044480    0.000000    0.000000   0.000000   0.000000
  +6.50   +0.661300   +0.047790    0.000000    0.000000   0.000000   0.000000
  +6.75   +0.674500   +0.051790    0.000000    0.000000   0.000000   0.000000
  +7.00   +0.684900   +0.056720    0.000000    0.000000   0.000000   0.000000
  +7.25   +0.692200   +0.061820    0.000000    0.000000   0.000000   0.000000
  +7.50   +0.696800   +0.067040    0.000000    0.000000   0.000000   0.000000
  +7.75   +0.699000   +0.072370    0.000000    0.000000   0.000000   0.000000
  +8.00   +0.699500   +0.077740    0.000000    0.000000   0.000000   0.000000
  +8.25   +0.699200   +0.083130    0.000000    0.000000   0.000000   0.000000
  +8.50   +0.697500   +0.088460    0.000000    0.000000   0.000000   0.000000
  +8.75   +0.697000   +0.093710    0.000000    0.000000   0.000000   0.000000
  +9.00   +0.697800   +0.098450    0.000000    0.000000   0.000000   0.000000
