xflr5 v6.48

 Calculated polar for: NACA 0006

 1 1 Reynolds number fixed          Mach number fixed         

 xtrf =   1.000 (top)        1.000 (bottom)
 Mach =   0.000     Re =     0.075 e 6     Ncrit =   5.000

  alpha     CL        CD       CDp       Cm    Top Xtr Bot Xtr   Cpmin    Chinge    XCp    
 ------- -------- --------- --------- -------- ------- ------- -------- --------- ---------
  -9.000  -0.7002   0.09567   0.09010   0.0123  1.0000  0.0265  -2.7674   0.0000   0.2635
  -8.750  -0.7000   0.09115   0.08562   0.0103  1.0000  0.0261  -2.7529   0.0000   0.2608
  -8.500  -0.7014   0.08591   0.08042   0.0065  1.0000  0.0257  -2.7948   0.0000   0.2556
  -8.250  -0.7038   0.08022   0.07474   0.0018  1.0000  0.0253  -2.8835   0.0000   0.2491
  -8.000  -0.7043   0.07451   0.06896  -0.0020  1.0000  0.0248  -2.9790   0.0000   0.2438
  -7.750  -0.7037   0.06886   0.06320  -0.0051  1.0000  0.0244  -3.0795   0.0000   0.2395
  -7.500  -0.7010   0.06328   0.05743  -0.0075  1.0000  0.0239  -3.1828   0.0000   0.2361
  -7.250  -0.6959   0.05778   0.05168  -0.0091  1.0000  0.0235  -3.2877   0.0000   0.2337
  -7.000  -0.6879   0.05245   0.04599  -0.0101  1.0000  0.0231  -3.3923   0.0000   0.2321
  -6.750  -0.6768   0.04740   0.04051  -0.0105  1.0000  0.0228  -3.4884   0.0000   0.2313
  -6.500  -0.6627   0.04274   0.03535  -0.0104  1.0000  0.0227  -3.5690   0.0000   0.2312
  -6.250  -0.6458   0.03850   0.03054  -0.0099  1.0000  0.0229  -3.6337   0.0000   0.2316
  -6.000  -0.6263   0.03470   0.02614  -0.0092  1.0000  0.0235  -3.6808   0.0000   0.2324
  -5.750  -0.6035   0.03184   0.02239  -0.0082  1.0000  0.0267  -3.6916   0.0000   0.2335
  -5.500  -0.5825   0.02967   0.02012  -0.0079  1.0000  0.0308  -3.4896   0.0000   0.2335
  -5.250  -0.5580   0.02715   0.01716  -0.0071  1.0000  0.0329  -3.4464   0.0000   0.2346
  -5.000  -0.5325   0.02487   0.01449  -0.0061  1.0000  0.0348  -3.3875   0.0000   0.2359
  -4.750  -0.5078   0.02286   0.01226  -0.0051  1.0000  0.0372  -3.2817   0.0000   0.2374
  -4.500  -0.4842   0.02135   0.01074  -0.0044  1.0000  0.0422  -3.0973   0.0000   0.2386
  -4.250  -0.4605   0.02016   0.00948  -0.0036  1.0000  0.0520  -2.8925   0.0000   0.2398
  -4.000  -0.4368   0.01887   0.00806  -0.0026  1.0000  0.0609  -2.7303   0.0000   0.2419
  -3.750  -0.4130   0.01773   0.00696  -0.0019  1.0000  0.0814  -2.5339   0.0000   0.2434
  -3.500  -0.3894   0.01639   0.00577  -0.0012  1.0000  0.1315  -2.3629   0.0000   0.2449
  -3.250  -0.3675   0.01463   0.00506  -0.0009  1.0000  0.3295  -2.1382   0.0000   0.2458
  -3.000  -0.3492   0.01337   0.00476   0.0011  1.0000  0.5446  -1.9102   0.0000   0.2514
  -2.750  -0.3309   0.01262   0.00470   0.0045  1.0000  0.7202  -1.6789   0.0000   0.2619
  -2.500  -0.3002   0.01239   0.00468   0.0060  1.0000  0.8571  -1.4177   0.0000   0.2683
  -2.250  -0.2513   0.01236   0.00446   0.0028  1.0000  0.9359  -1.1582   0.0000   0.2597
  -2.000  -0.1984   0.01228   0.00409  -0.0021  1.0000  0.9798  -0.9180   0.0000   0.2378
  -1.750  -0.1511   0.01210   0.00359  -0.0065  1.0000  1.0000  -0.7083   0.0000   0.2053
  -1.500  -0.1295   0.01196   0.00332  -0.0057  1.0000  1.0000  -0.5935   0.0000   0.2042
  -1.250  -0.1078   0.01185   0.00310  -0.0049  1.0000  1.0000  -0.5014   0.0000   0.2031
  -1.000  -0.0861   0.01177   0.00292  -0.0040  1.0000  1.0000  -0.4207   0.0000   0.2019
  -0.750  -0.0645   0.01171   0.00280  -0.0031  1.0000  1.0000  -0.3476   0.0000   0.2011
  -0.500  -0.0430   0.01166   0.00271  -0.0021  1.0000  1.0000  -0.2903   0.0000   0.2006
  -0.250  -0.0215   0.01164   0.00266  -0.0010  1.0000  1.0000  -0.2467   0.0000   0.2003
   0.000  -0.0000   0.01163   0.00265   0.0000  1.0000  1.0000  -0.2131   0.0000   0.4306
   0.250   0.0215   0.01164   0.00266   0.0010  1.0000  1.0000  -0.2467   0.0000   0.2003
   0.500   0.0430   0.01166   0.00271   0.0021  1.0000  1.0000  -0.2903   0.0000   0.2006
   0.750   0.0645   0.01171   0.00280   0.0031  1.0000  1.0000  -0.3477   0.0000   0.2011
   1.000   0.0861   0.01177   0.00292   0.0040  1.0000  1.0000  -0.4207   0.0000   0.2020
   1.250   0.1078   0.01185   0.00310   0.0049  1.0000  1.0000  -0.5014   0.0000   0.2031
   1.500   0.1295   0.01196   0.00332   0.0057  1.0000  1.0000  -0.5935   0.0000   0.2042
   1.750   0.1511   0.01210   0.00359   0.0065  1.0000  1.0000  -0.7084   0.0000   0.2053
   2.000   0.1984   0.01228   0.00409   0.0021  0.9798  1.0000  -0.9180   0.0000   0.2378
   2.250   0.2513   0.01236   0.00446  -0.0028  0.9359  1.0000  -1.1582   0.0000   0.2597
   2.500   0.3002   0.01238   0.00468  -0.0060  0.8571  1.0000  -1.4177   0.0000   0.2683
   2.750   0.3309   0.01262   0.00470  -0.0045  0.7203  1.0000  -1.6788   0.0000   0.2619
   3.000   0.3492   0.01337   0.00476  -0.0011  0.5447  1.0000  -1.9101   0.0000   0.2514
   3.250   0.3675   0.01463   0.00506   0.0009  0.3296  1.0000  -2.1382   0.0000   0.2458
   3.500   0.3894   0.01638   0.00577   0.0012  0.1315  1.0000  -2.3629   0.0000   0.2449
   3.750   0.4130   0.01773   0.00696   0.0019  0.0814  1.0000  -2.5339   0.0000   0.2434
   4.000   0.4367   0.01887   0.00806   0.0026  0.0609  1.0000  -2.7303   0.0000   0.2418
   4.250   0.4605   0.02016   0.00948   0.0036  0.0520  1.0000  -2.8925   0.0000   0.2398
   4.500   0.4842   0.02135   0.01073   0.0044  0.0422  1.0000  -3.0973   0.0000   0.2386
   4.750   0.5078   0.02286   0.01226   0.0051  0.0372  1.0000  -3.2817   0.0000   0.2374
   5.000   0.5326   0.02487   0.01449   0.0061  0.0348  1.0000  -3.3876   0.0000   0.2359
   5.250   0.5580   0.02715   0.01716   0.0071  0.0329  1.0000  -3.4464   0.0000   0.2346
   5.500   0.5825   0.02967   0.02012   0.0079  0.0308  1.0000  -3.4896   0.0000   0.2336
   5.750   0.6035   0.03184   0.02239   0.0082  0.0267  1.0000  -3.6916   0.0000   0.2335
   6.000   0.6263   0.03470   0.02614   0.0092  0.0235  1.0000  -3.6808   0.0000   0.2324
   6.250   0.6458   0.03850   0.03054   0.0099  0.0229  1.0000  -3.6337   0.0000   0.2316
   6.500   0.6627   0.04275   0.03535   0.0104  0.0227  1.0000  -3.5689   0.0000   0.2312
   6.750   0.6769   0.04741   0.04051   0.0105  0.0228  1.0000  -3.4883   0.0000   0.2313
   7.000   0.6880   0.05246   0.04600   0.0101  0.0231  1.0000  -3.3922   0.0000   0.2321
   7.250   0.6960   0.05780   0.05169   0.0091  0.0235  1.0000  -3.2876   0.0000   0.2337
   7.500   0.7012   0.06329   0.05745   0.0074  0.0239  1.0000  -3.1825   0.0000   0.2362
   7.750   0.7039   0.06888   0.06322   0.0050  0.0244  1.0000  -3.0792   0.0000   0.2396
   8.000   0.7046   0.07454   0.06899   0.0019  0.0248  1.0000  -2.9788   0.0000   0.2439
   8.250   0.7042   0.08026   0.07478  -0.0019  0.0253  1.0000  -2.8834   0.0000   0.2492
   8.500   0.7019   0.08596   0.08047  -0.0066  0.0257  1.0000  -2.7957   0.0000   0.2558
   8.750   0.7007   0.09120   0.08566  -0.0104  0.0261  1.0000  -2.7548   0.0000   0.2610
   9.000   0.7010   0.09570   0.09014  -0.0124  0.0265  1.0000  -2.7712   0.0000   0.2636


