xflr5 v6.48

 Calculated polar for: NACA 0006

 1 1 Reynolds number fixed          Mach number fixed

 xtrf =   1.000 (top)        1.000 (bottom)
 Mach =   0.000     Re =     0.075 e 6     Ncrit =   5.000

  alpha     CL        CD       CDp       Cm    Top Xtr Bot Xtr   Cpmin    Chinge    XCp
  -9.00   -0.700200   +0.095670    0.000000    0.000000   0.000000   0.000000
  -8.75   -0.700000   +0.091150    0.000000    0.000000   0.000000   0.000000
  -8.50   -0.701400   +0.085910    0.000000    0.000000   0.000000   0.000000
  -8.25   -0.703800   +0.080220    0.000000    0.000000   0.000000   0.000000
  -8.00   -0.704300   +0.074510    0.000000    0.000000   0.000000   0.000000
  -7.75   -0.703700   +0.068860    0.000000    0.000000   0.000000   0.000000
  -7.50   -0.701000   +0.063280    0.000000    0.000000   0.000000   0.000000
  -7.25   -0.695900   +0.057780    0.000000    0.000000   0.000000   0.000000
  -7.00   -0.687900   +0.052450    0.000000    0.000000   0.000000   0.000000
  -6.75   -0.676800   +0.047400    0.000000    0.000000   0.000000   0.000000
  -6.50   -0.662700   +0.042740    0.000000    0.000000   0.000000   0.000000
  -6.25   -0.645800   +0.038500    0.000000    0.000000   0.000000   0.000000
  -6.00   -0.626300   +0.034700    0.000000    0.000000   0.000000   0.000000
  -5.75   -0.603500   +0.031840    0.000000    0.000000   0.000000   0.000000
  -5.50   -0.582500   +0.029670    0.000000    0.000000   0.000000   0.000000
  -5.25   -0.558000   +0.027150    0.000000    0.000000   0.000000   0.000000
  -5.00   -0.532500   +0.024870    0.000000    0.000000   0.000000   0.000000
  -4.75   -0.507800   +0.022860    0.000000    0.000000   0.000000   0.000000
  -4.50   -0.484200   +0.021350    0.000000    0.000000   0.000000   0.000000
  -4.25   -0.460500   +0.020160    0.000000    0.000000   0.000000   0.000000
  -4.00   -0.436800   +0.018870    0.000000    0.000000   0.000000   0.000000
  -3.75   -0.413000   +0.017730    0.000000    0.000000   0.000000   0.000000
  -3.50   -0.389400   +0.016390    0.000000    0.000000   0.000000   0.000000
  -3.25   -0.367500   +0.014630    0.000000    0.000000   0.000000   0.000000
  -3.00   -0.349200   +0.013370    0.000000    0.000000   0.000000   0.000000
  -2.75   -0.330900   +0.012620    0.000000    0.000000   0.000000   0.000000
  -2.50   -0.300200   +0.012390    0.000000    0.000000   0.000000   0.000000
  -2.25   -0.251300   +0.012360    0.000000    0.000000   0.000000   0.000000
  -2.00   -0.198400   +0.012280    0.000000    0.000000   0.000000   0.000000
  -1.75   -0.151100   +0.012100    0.000000    0.000000   0.000000   0.000000
  -1.50   -0.129500   +0.011960    0.000000    0.000000   0.000000   0.000000
  -1.25   -0.107800   +0.011850    0.000000    0.000000   0.000000   0.000000
  -1.00   -0.086100   +0.011770    0.000000    0.000000   0.000000   0.000000
  -0.75   -0.064500   +0.011710    0.000000    0.000000   0.000000   0.000000
  -0.50   -0.043000   +0.011660    0.000000    0.000000   0.000000   0.000000
  -0.25   -0.021500   +0.011640    0.000000    0.000000   0.000000   0.000000
  +0.00   -0.000000   +0.011630    0.000000    0.000000   0.000000   0.000000
  +0.25   +0.021500   +0.011640    0.000000    0.000000   0.000000   0.000000
  +0.50   +0.043000   +0.011660    0.000000    0.000000   0.000000   0.000000
  +0.75   +0.064500   +0.011710    0.000000    0.000000   0.000000   0.000000
  +1.00   +0.086100   +0.011770    0.000000    0.000000   0.000000   0.000000
  +1.25   +0.107800   +0.011850    0.000000    0.000000   0.000000   0.000000
  +1.50   +0.129500   +0.011960    0.000000    0.000000   0.000000   0.000000
  +1.75   +0.151100   +0.012100    0.000000    0.000000   0.000000   0.000000
  +2.00   +0.198400   +0.012280    0.000000    0.000000   0.000000   0.000000
  +2.25   +0.251300   +0.012360    0.000000    0.000000   0.000000   0.000000
  +2.50   +0.300200   +0.012380    0.000000    0.000000   0.000000   0.000000
  +2.75   +0.330900   +0.012620    0.000000    0.000000   0.000000   0.000000
  +3.00   +0.349200   +0.013370    0.000000    0.000000   0.000000   0.000000
  +3.25   +0.367500   +0.014630    0.000000    0.000000   0.000000   0.000000
  +3.50   +0.389400   +0.016380    0.000000    0.000000   0.000000   0.000000
  +3.75   +0.413000   +0.017730    0.000000    0.000000   0.000000   0.000000
  +4.00   +0.436700   +0.018870    0.000000    0.000000   0.000000   0.000000
  +4.25   +0.460500   +0.020160    0.000000    0.000000   0.000000   0.000000
  +4.50   +0.484200   +0.021350    0.000000    0.000000   0.000000   0.000000
  +4.75   +0.507800   +0.022860    0.000000    0.000000   0.000000   0.000000
  +5.00   +0.532600   +0.024870    0.000000    0.000000   0.000000   0.000000
  +5.25   +0.558000   +0.027150    0.000000    0.000000   0.000000   0.000000
  +5.50   +0.582500   +0.029670    0.000000    0.000000   0.000000   0.000000
  +5.75   +0.603500   +0.031840    0.000000    0.000000   0.000000   0.000000
  +6.00   +0.626300   +0.034700    0.000000    0.000000   0.000000   0.000000
  +6.25   +0.645800   +0.038500    0.000000    0.000000   0.000000   0.000000
  +6.50   +0.662700   +0.042750    0.000000    0.000000   0.000000   0.000000
  +6.75   +0.676900   +0.047410    0.000000    0.000000   0.000000   0.000000
  +7.00   +0.688000   +0.052460    0.000000    0.000000   0.000000   0.000000
  +7.25   +0.696000   +0.057800    0.000000    0.000000   0.000000   0.000000
  +7.50   +0.701200   +0.063290    0.000000    0.000000   0.000000   0.000000
  +7.75   +0.703900   +0.068880    0.000000    0.000000   0.000000   0.000000
  +8.00   +0.704600   +0.074540    0.000000    0.000000   0.000000   0.000000
  +8.25   +0.704200   +0.080260    0.000000    0.000000   0.000000   0.000000
  +8.50   +0.701900   +0.085960    0.000000    0.000000   0.000000   0.000000
  +8.75   +0.700700   +0.091200    0.000000    0.000000   0.000000   0.000000
  +9.00   +0.701000   +0.095700    0.000000    0.000000   0.000000   0.000000
