xflr5 v6.48

 Calculated polar for: NACA 0006

 1 1 Reynolds number fixed          Mach number fixed

 xtrf =   1.000 (top)        1.000 (bottom)
 Mach =   0.000     Re =     0.100 e 6     Ncrit =   5.000

  alpha     CL        CD       CDp       Cm    Top Xtr Bot Xtr   Cpmin    Chinge    XCp
  -9.00   -0.697400   +0.097850    0.000000    0.000000   0.000000   0.000000
  -8.75   -0.699500   +0.092520    0.000000    0.000000   0.000000   0.000000
  -8.50   -0.703100   +0.086560    0.000000    0.000000   0.000000   0.000000
  -8.25   -0.708700   +0.079370    0.000000    0.000000   0.000000   0.000000
  -8.00   -0.714800   +0.067660    0.000000    0.000000   0.000000   0.000000
  -7.75   -0.711100   +0.062840    0.000000    0.000000   0.000000   0.000000
  -7.50   -0.707500   +0.057830    0.000000    0.000000   0.000000   0.000000
  -7.25   -0.701100   +0.052840    0.000000    0.000000   0.000000   0.000000
  -7.00   -0.691800   +0.047950    0.000000    0.000000   0.000000   0.000000
  -6.75   -0.679600   +0.043260    0.000000    0.000000   0.000000   0.000000
  -6.50   -0.664700   +0.038850    0.000000    0.000000   0.000000   0.000000
  -6.25   -0.647100   +0.034800    0.000000    0.000000   0.000000   0.000000
  -6.00   -0.626900   +0.031190    0.000000    0.000000   0.000000   0.000000
  -5.75   -0.604300   +0.028180    0.000000    0.000000   0.000000   0.000000
  -5.50   -0.582200   +0.025400    0.000000    0.000000   0.000000   0.000000
  -5.25   -0.558100   +0.024340    0.000000    0.000000   0.000000   0.000000
  -5.00   -0.533300   +0.022420    0.000000    0.000000   0.000000   0.000000
  -4.75   -0.509300   +0.020680    0.000000    0.000000   0.000000   0.000000
  -4.50   -0.485000   +0.019270    0.000000    0.000000   0.000000   0.000000
  -4.25   -0.461300   +0.018000    0.000000    0.000000   0.000000   0.000000
  -4.00   -0.437100   +0.017100    0.000000    0.000000   0.000000   0.000000
  -3.75   -0.413000   +0.016090    0.000000    0.000000   0.000000   0.000000
  -3.50   -0.389100   +0.015060    0.000000    0.000000   0.000000   0.000000
  -3.25   -0.366400   +0.013790    0.000000    0.000000   0.000000   0.000000
  -3.00   -0.345600   +0.012480    0.000000    0.000000   0.000000   0.000000
  -2.75   -0.325300   +0.011500    0.000000    0.000000   0.000000   0.000000
  -2.50   -0.305300   +0.010870    0.000000    0.000000   0.000000   0.000000
  -2.25   -0.279100   +0.010610    0.000000    0.000000   0.000000   0.000000
  -2.00   -0.238600   +0.010570    0.000000    0.000000   0.000000   0.000000
  -1.75   -0.192500   +0.010540    0.000000    0.000000   0.000000   0.000000
  -1.50   -0.142300   +0.010460    0.000000    0.000000   0.000000   0.000000
  -1.25   -0.107700   +0.010350    0.000000    0.000000   0.000000   0.000000
  -1.00   -0.085800   +0.010260    0.000000    0.000000   0.000000   0.000000
  -0.75   -0.064100   +0.010200    0.000000    0.000000   0.000000   0.000000
  -0.50   -0.042600   +0.010160    0.000000    0.000000   0.000000   0.000000
  -0.25   -0.021300   +0.010130    0.000000    0.000000   0.000000   0.000000
  +0.00   -0.000000   +0.000498    0.000000    0.000000   0.000000   0.000000
  +0.25   +0.021300   +0.010130    0.000000    0.000000   0.000000   0.000000
  +0.50   +0.042600   +0.010160    0.000000    0.000000   0.000000   0.000000
  +0.75   +0.064100   +0.010200    0.000000    0.000000   0.000000   0.000000
  +1.00   +0.085800   +0.010260    0.000000    0.000000   0.000000   0.000000
  +1.25   +0.107700   +0.010350    0.000000    0.000000   0.000000   0.000000
  +1.50   +0.142300   +0.010450    0.000000    0.000000   0.000000   0.000000
  +1.75   +0.192500   +0.010530    0.000000    0.000000   0.000000   0.000000
  +2.00   +0.238600   +0.010570    0.000000    0.000000   0.000000   0.000000
  +2.25   +0.279100   +0.010610    0.000000    0.000000   0.000000   0.000000
  +2.50   +0.305300   +0.010870    0.000000    0.000000   0.000000   0.000000
  +2.75   +0.325300   +0.011500    0.000000    0.000000   0.000000   0.000000
  +3.00   +0.345600   +0.012480    0.000000    0.000000   0.000000   0.000000
  +3.25   +0.366400   +0.013790    0.000000    0.000000   0.000000   0.000000
  +3.50   +0.389100   +0.015060    0.000000    0.000000   0.000000   0.000000
  +3.75   +0.413000   +0.016090    0.000000    0.000000   0.000000   0.000000
  +4.00   +0.437100   +0.017100    0.000000    0.000000   0.000000   0.000000
  +4.25   +0.461300   +0.018000    0.000000    0.000000   0.000000   0.000000
  +4.50   +0.485000   +0.019270    0.000000    0.000000   0.000000   0.000000
  +4.75   +0.509300   +0.020680    0.000000    0.000000   0.000000   0.000000
  +5.00   +0.533300   +0.022420    0.000000    0.000000   0.000000   0.000000
  +5.25   +0.558200   +0.024340    0.000000    0.000000   0.000000   0.000000
  +5.50   +0.582200   +0.025400    0.000000    0.000000   0.000000   0.000000
  +5.75   +0.604300   +0.028180    0.000000    0.000000   0.000000   0.000000
  +6.00   +0.626900   +0.031200    0.000000    0.000000   0.000000   0.000000
  +6.25   +0.647100   +0.034800    0.000000    0.000000   0.000000   0.000000
  +6.50   +0.664700   +0.038850    0.000000    0.000000   0.000000   0.000000
  +6.75   +0.679700   +0.043260    0.000000    0.000000   0.000000   0.000000
  +7.00   +0.691800   +0.047960    0.000000    0.000000   0.000000   0.000000
  +7.25   +0.701200   +0.052840    0.000000    0.000000   0.000000   0.000000
  +7.50   +0.707600   +0.057850    0.000000    0.000000   0.000000   0.000000
  +7.75   +0.711300   +0.062860    0.000000    0.000000   0.000000   0.000000
  +8.25   +0.709100   +0.079440    0.000000    0.000000   0.000000   0.000000
  +8.50   +0.703600   +0.086640    0.000000    0.000000   0.000000   0.000000
  +8.75   +0.700200   +0.092590    0.000000    0.000000   0.000000   0.000000
  +9.00   +0.698200   +0.097920    0.000000    0.000000   0.000000   0.000000
